REMARK 10 active torsions:
REMARK  status: ('A' for Active; 'I' for Inactive)
REMARK    1  A    between atoms: C06_6  and  C07_9
REMARK    2  A    between atoms: C07_9  and  O08_10
REMARK    3  A    between atoms: O08_10  and  C09_11
REMARK    4  A    between atoms: N10_13  and  C11_15
REMARK    5  A    between atoms: C11_15  and  C12_16
REMARK    6  A    between atoms: C11_15  and  C16_20
REMARK    7  A    between atoms: N17_21  and  C18_24
REMARK    8  A    between atoms: C18_24  and  C26_25
REMARK    9  A    between atoms: C18_24  and  C19_28
REMARK   10  A    between atoms: C19_28  and  C20_29
ROOT
HETATM    1  C02 QYS A 401      10.655  30.154  23.992  1.00  0.00     0.249 C
HETATM    2  C04 QYS A 401       9.358  29.459  23.448  1.00  0.00     0.076 C
HETATM    3  F03 QYS A 401      10.425  30.759  25.194  1.00  0.00    -0.206 F
HETATM    4  F01 QYS A 401      10.975  31.209  23.207  1.00  0.00    -0.206 F
HETATM    5  C05 QYS A 401       9.109  28.075  24.025  1.00  0.00     0.011 C
HETATM    6  C06 QYS A 401      10.325  27.117  24.014  1.00  0.00     0.016 C
HETATM    7  C31 QYS A 401      11.877  29.222  24.125  1.00  0.00     0.076 C
HETATM    8  C30 QYS A 401      11.582  27.781  24.564  1.00  0.00     0.011 C
ENDROOT
BRANCH   6   9
HETATM    9  C07 QYS A 401      10.035  25.811  24.817  1.00  0.00     0.175 C
BRANCH   9  10
HETATM   10  O08 QYS A 401      11.169  25.347  25.570  1.00  0.00    -0.302 OA
BRANCH  10  11
HETATM   11  C09 QYS A 401      11.408  24.001  25.646  1.00  0.00     0.339 C
HETATM   12  O29 QYS A 401      10.753  23.234  24.926  1.00  0.00    -0.245 OA
HETATM   13  N10 QYS A 401      12.332  23.532  26.492  1.00  0.00    -0.222 N
HETATM   14  H10 QYS A 401      12.970  24.181  26.953  1.00  0.00     0.133 HD
BRANCH  13  15
HETATM   15  C11 QYS A 401      12.440  22.085  26.767  1.00  0.00     0.146 C
BRANCH  15  16
HETATM   16  C12 QYS A 401      13.590  21.827  27.785  1.00  0.00     0.031 C
HETATM   17  C15 QYS A 401      15.321  21.714  25.972  1.00  0.00     0.007 C
HETATM   18  C14 QYS A 401      16.072  22.070  28.371  1.00  0.00     0.007 C
HETATM   19  C13 QYS A 401      14.951  22.333  27.321  1.00  0.00    -0.015 C
ENDBRANCH  15  16
BRANCH  15  20
HETATM   20  C16 QYS A 401      11.126  21.566  27.314  1.00  0.00     0.218 C
HETATM   21  N17 QYS A 401      10.536  20.420  26.876  1.00  0.00    -0.251 N
HETATM   22  O28 QYS A 401      10.543  22.261  28.153  1.00  0.00    -0.278 OA
HETATM   23  H17 QYS A 401      11.007  19.886  26.145  1.00  0.00     0.131 HD
BRANCH  21  24
HETATM   24  C18 QYS A 401       9.317  19.931  27.372  1.00  0.00     0.091 C
BRANCH  24  25
HETATM   25  C26 QYS A 401       9.568  18.547  28.025  1.00  0.00     0.175 C
HETATM   26  H27 QYS A 401       8.502  17.191  28.898  1.00  0.00     0.209 HD
HETATM   27  O27 QYS A 401       8.348  18.039  28.498  1.00  0.00    -0.393 OA
ENDBRANCH  24  25
BRANCH  24  28
HETATM   28  C19 QYS A 401       8.223  19.796  26.192  1.00  0.00     0.058 C
BRANCH  28  29
HETATM   29  C20 QYS A 401       7.777  21.146  25.652  1.00  0.00     0.003 C
HETATM   30  C21 QYS A 401       6.832  21.040  24.469  1.00  0.00     0.270 C
HETATM   31  O25 QYS A 401       7.086  20.253  23.535  1.00  0.00    -0.266 OA
HETATM   32  N22 QYS A 401       5.784  21.883  24.588  1.00  0.00    -0.222 NA
HETATM   33  C23 QYS A 401       5.849  22.685  25.853  1.00  0.00     0.092 C
HETATM   34  C24 QYS A 401       6.982  21.976  26.669  1.00  0.00     0.083 C
ENDBRANCH  28  29
ENDBRANCH  24  28
ENDBRANCH  21  24
ENDBRANCH  15  20
ENDBRANCH  13  15
ENDBRANCH  10  11
ENDBRANCH   9  10
ENDBRANCH   6   9
TORSDOF 10
