MODEL        1
REMARK THIS MODEL IS IDENTICAL TO THE INPUT LIGAND AND NOT FROM DOCKING
REMARK 921   NORMALIZED FREE ENERGY PREDICTED BY IDOCK:   -2.06 KCAL/MOL
REMARK 922        TOTAL FREE ENERGY PREDICTED BY IDOCK:   -4.51 KCAL/MOL
REMARK 923 INTER-LIGAND FREE ENERGY PREDICTED BY IDOCK:   -3.39 KCAL/MOL
REMARK 924 INTRA-LIGAND FREE ENERGY PREDICTED BY IDOCK:   -1.12 KCAL/MOL
REMARK 927      BINDING AFFINITY PREDICTED BY RF-SCORE:    0.00 PKD
ROOT
HETATM    1  C28 U5G A 401       3.012   5.196  16.482  1.00  0.00    -0.270 C  
HETATM    2  O34 U5G A 401       1.944   4.983  17.069  1.00  0.00    -0.183 OA 
ENDROOT
BRANCH   1   3
HETATM    3  N29 U5G A 401       3.920   6.133  16.853  1.00  0.00    -0.515 N  
HETATM    4  C33 U5G A 401       2.628   7.720  18.204  1.00  0.00    -0.262 C  
HETATM    5  C32 U5G A 401       5.114   7.832  18.125  1.00  0.00    -0.530 C  
HETATM    6  C30 U5G A 401       3.910   6.904  18.121  1.00  0.00    -0.280 C  
HETATM    7  C31 U5G A 401       3.997   5.947  19.303  1.00  0.00    -0.306 C  
HETATM    8  H29 U5G A 401       4.680   6.325  16.200  1.00  0.00     0.000 HD 
ENDBRANCH   1   3
BRANCH   1   9
HETATM    9  N27 U5G A 401       3.399   4.511  15.378  1.00  0.00    -0.427 N  
HETATM   10  H27 U5G A 401       4.276   4.738  14.910  1.00  0.00     0.000 HD 
BRANCH   9  11
HETATM   11  C22 U5G A 401       2.549   3.451  14.871  1.00  0.00    -0.209 C  
BRANCH  11  12
HETATM   12  C21 U5G A 401       3.375   2.154  14.882  1.00  0.00    -0.266 C  
HETATM   13  C18 U5G A 401       2.742  -1.738  18.913  1.00  0.00    -0.718 C  
HETATM   14  C17 U5G A 401       3.669   0.580  18.361  1.00  0.00    -0.608 C  
HETATM   15  O35 U5G A 401       4.495   2.146  14.400  1.00  0.00    -0.452 OA 
HETATM   16  C16 U5G A 401       2.865  -0.629  17.868  1.00  0.00    -0.348 C  
HETATM   17  C13 U5G A 401       3.571  -0.208  15.309  1.00  0.00    -0.327 C  
HETATM   18  N20 U5G A 401       2.839   1.050  15.425  1.00  0.00    -0.227 N  
HETATM   19  C19 U5G A 401       1.575   0.899  16.155  1.00  0.00    -0.260 C  
HETATM   20  C15 U5G A 401       1.712  -0.411  16.918  1.00  0.00    -0.420 C  
HETATM   21  C14 U5G A 401       2.979  -1.087  16.431  1.00  0.00    -0.438 C  
BRANCH  17  22
HETATM   22  C12 U5G A 401       3.326  -0.842  13.932  1.00  0.00    -0.269 C  
HETATM   23  O36 U5G A 401       2.195  -0.931  13.469  1.00  0.00    -0.182 OA 
HETATM   24  N11 U5G A 401       4.420  -1.285  13.301  1.00  0.00    -0.214 N  
HETATM   25  H11 U5G A 401       5.320  -1.174  13.768  1.00  0.00     0.000 HD 
BRANCH  24  26
HETATM   26  C05 U5G A 401       4.403  -1.916  11.988  1.00  0.00     0.854 C  
BRANCH  26  27
HETATM   27  C03 U5G A 401       4.799  -3.401  12.135  1.00  0.00     4.013 C  
HETATM   28  O04 U5G A 401       4.058  -3.841  13.253  1.00  0.00     0.949 OA 
HETATM   29  H04 U5G A 401       4.302  -4.755  13.343  1.00  0.00     0.000 HD 
BRANCH  27  30
HETATM   30  C02 U5G A 401       4.360  -4.187  10.915  1.00  0.00     1.037 C  
HETATM   31  N37 U5G A 401       3.378  -5.058  11.071  1.00  0.00    -0.380 N  
HETATM   32 2H37 U5G A 401       2.932  -5.196  11.978  1.00  0.00     0.000 HD 
HETATM   33 1H37 U5G A 401       3.083  -5.587  10.250  1.00  0.00     0.000 HD 
HETATM   34  O01 U5G A 401       4.968  -4.037   9.849  1.00  0.00    -0.501 OA 
ENDBRANCH  27  30
ENDBRANCH  26  27
BRANCH  26  35
HETATM   35  C06 U5G A 401       5.398  -1.194  11.077  1.00  0.00     0.512 C  
BRANCH  35  36
HETATM   36  C07 U5G A 401       5.219   0.317  10.974  1.00  0.00    -0.336 C  
HETATM   37  C09 U5G A 401       4.929   1.334   9.082  1.00  0.00    -0.421 C  
HETATM   38  C08 U5G A 401       6.161   1.065  10.012  1.00  0.00    -0.459 C  
HETATM   39  C10 U5G A 401       3.979   0.836  10.229  1.00  0.00    -0.276 C  
ENDBRANCH  35  36
ENDBRANCH  26  35
ENDBRANCH  24  26
ENDBRANCH  17  22
ENDBRANCH  11  12
BRANCH  11  40
HETATM   40  C23 U5G A 401       1.930   3.801  13.487  1.00  0.00    -0.141 C  
HETATM   41  C26 U5G A 401       1.020   5.021  13.632  1.00  0.00    -0.146 C  
HETATM   42  C25 U5G A 401       3.017   4.123  12.461  1.00  0.00    -0.249 C  
HETATM   43  C24 U5G A 401       1.102   2.619  12.978  1.00  0.00    -0.128 C  
ENDBRANCH  11  40
ENDBRANCH   9  11
ENDBRANCH   1   9
TORSDOF 11
ENDMDL
