REMARK  4 active torsions:
REMARK  status: ('A' for Active; 'I' for Inactive)
REMARK    1  A    between atoms: N1_1  and  C5_3
REMARK    2  A    between atoms: N1_1  and  C6_13
REMARK    3  A    between atoms: C5_3  and  N_5
REMARK    4  A    between atoms: N_5  and  C4_7
ROOT
HETATM    1  N1  UH4 A1001       7.231  -0.687  20.729  1.00  0.00    -0.213 N
HETATM    2  H1  UH4 A1001       6.964  -1.596  21.106  1.00  0.00     0.138 HD
ENDROOT
BRANCH   1   3
HETATM    3  C5  UH4 A1001       8.418  -0.151  21.129  1.00  0.00     0.282 C
HETATM    4  O   UH4 A1001       8.848   0.915  20.698  1.00  0.00    -0.260 OA
BRANCH   3   5
HETATM    5  N   UH4 A1001       9.112  -0.879  22.082  1.00  0.00    -0.209 N
HETATM    6  H   UH4 A1001       8.730  -1.760  22.426  1.00  0.00     0.138 HD
BRANCH   5   7
HETATM    7  C4  UH4 A1001      10.329  -0.412  22.572  1.00  0.00     0.061 A
HETATM    8  C2  UH4 A1001      12.418  -0.416  23.551  1.00  0.00     0.012 A
HETATM    9  C1  UH4 A1001      12.408   0.856  23.067  1.00  0.00    -0.012 A
HETATM   10  C3  UH4 A1001      11.240  -1.144  23.273  1.00  0.00     0.028 A
HETATM   11  S   UH4 A1001      10.912   1.189  22.276  1.00  0.00    -0.082 SA
HETATM   12  C   UH4 A1001      13.494   1.880  23.093  1.00  0.00     0.051 C
ENDBRANCH   5   7
ENDBRANCH   3   5
ENDBRANCH   1   3
BRANCH   1  13
HETATM   13  C6  UH4 A1001       6.351  -0.060  19.825  1.00  0.00     0.041 A
HETATM   14  C7  UH4 A1001       5.220   0.611  20.272  1.00  0.00     0.023 A
HETATM   15  C10 UH4 A1001       6.671   0.031  18.471  1.00  0.00     0.130 A
HETATM   16  C8  UH4 A1001       4.482   1.366  19.378  1.00  0.00     0.021 A
HETATM   17  N2  UH4 A1001       5.958   0.746  17.593  1.00  0.00    -0.262 NA
HETATM   18  C9  UH4 A1001       4.891   1.407  18.059  1.00  0.00     0.111 A
ENDBRANCH   1  13
TORSDOF 4
