REMARK  3 active torsions:
REMARK  status: ('A' for Active; 'I' for Inactive)
REMARK    1  A    between atoms: N1_1  and  C11_5
REMARK    2  A    between atoms: C_4  and  C1_11
REMARK    3  A    between atoms: C1_11  and  C2_12
ROOT
HETATM    1  N1  UGG A1001       9.606  -0.786  21.939  1.00  0.00    -0.228 N
HETATM    2  H1  UGG A1001       9.482  -1.798  21.961  1.00  0.00     0.136 HD
HETATM    3  O   UGG A1001       9.161   1.086  20.728  1.00  0.00    -0.279 OA
HETATM    4  C   UGG A1001       8.972  -0.107  20.963  1.00  0.00     0.209 C
ENDROOT
BRANCH   1   5
HETATM    5  C11 UGG A1001      10.425  -0.215  22.931  1.00  0.00     0.022 A
HETATM    6  C13 UGG A1001      12.496   0.820  23.567  1.00  0.00     0.002 A
HETATM    7  C16 UGG A1001       9.849   0.226  24.118  1.00  0.00     0.020 A
HETATM    8  C15 UGG A1001      10.596   0.977  25.008  1.00  0.00     0.002 A
HETATM    9  C12 UGG A1001      11.761   0.068  22.666  1.00  0.00     0.020 A
HETATM   10  C14 UGG A1001      11.914   1.278  24.730  1.00  0.00     0.000 A
ENDBRANCH   1   5
BRANCH   4  11
HETATM   11  C1  UGG A1001       7.945  -0.924  20.206  1.00  0.00     0.129 C
BRANCH  11  12
HETATM   12  C2  UGG A1001       7.007  -0.095  19.361  1.00  0.00    -0.013 A
HETATM   13  C5  UGG A1001       5.069   1.387  19.090  1.00  0.00     0.000 A
HETATM   14  C10 UGG A1001       5.899   0.600  19.937  1.00  0.00    -0.011 A
HETATM   15  C6  UGG A1001       3.983   2.100  19.654  1.00  0.00     0.010 A
HETATM   16  C4  UGG A1001       5.389   1.420  17.716  1.00  0.00     0.119 A
HETATM   17  C7  UGG A1001       3.727   2.030  20.991  1.00  0.00     0.001 A
HETATM   18  N   UGG A1001       6.411   0.771  17.179  1.00  0.00    -0.262 NA
HETATM   19  C3  UGG A1001       7.182   0.045  17.998  1.00  0.00     0.115 A
HETATM   20  C8  UGG A1001       4.533   1.270  21.826  1.00  0.00     0.001 A
HETATM   21  C9  UGG A1001       5.592   0.567  21.323  1.00  0.00     0.009 A
ENDBRANCH  11  12
ENDBRANCH   4  11
TORSDOF 3
