MODEL        1
REMARK THIS MODEL IS IDENTICAL TO THE INPUT LIGAND AND NOT FROM DOCKING
REMARK 921   NORMALIZED FREE ENERGY PREDICTED BY IDOCK:   27.60 KCAL/MOL
REMARK 922        TOTAL FREE ENERGY PREDICTED BY IDOCK:   40.26 KCAL/MOL
REMARK 923 INTER-LIGAND FREE ENERGY PREDICTED BY IDOCK:   38.90 KCAL/MOL
REMARK 924 INTRA-LIGAND FREE ENERGY PREDICTED BY IDOCK:    1.36 KCAL/MOL
REMARK 927      BINDING AFFINITY PREDICTED BY RF-SCORE:    0.00 PKD
ROOT
HETATM    1  C10BS8E A 401       8.993   0.765  22.620  1.00  0.00    -0.239 C  
ENDROOT
BRANCH   1   2
HETATM    2  O11BS8E A 401       8.091   0.202  21.717  1.00  0.00    -0.256 OA 
BRANCH   2   3
HETATM    3  P12BS8E A 401       7.391  -1.241  22.086  1.00  0.00    -0.332 P  
HETATM    4  O13BS8E A 401       7.841  -1.717  23.393  1.00  0.00    -0.226 OA 
BRANCH   3   5
HETATM    5  N14BS8E A 401       5.712  -1.017  22.112  1.00  0.00     1.045 NA 
HETATM    6  H1 BS8E A 401       5.159  -1.277  22.929  1.00  0.00     0.000 HD 
BRANCH   5   7
HETATM    7  C15BS8E A 401       5.089  -0.445  20.938  1.00  0.00     4.509 C  
HETATM    8  C16BS8E A 401       5.365   1.056  20.900  1.00  0.00     1.373 C  
HETATM    9 BR1 BS8E A 401       4.066   1.890  19.724  1.00  0.00     0.613 Br 
ENDBRANCH   5   7
ENDBRANCH   3   5
BRANCH   3  10
HETATM   10  N18BS8E A 401       7.850  -2.319  20.850  1.00  0.00     0.962 NA 
HETATM   11  H1 BS8E A 401       7.950  -3.316  21.039  1.00  0.00     0.000 HD 
BRANCH  10  12
HETATM   12  C19BS8E A 401       8.096  -1.788  19.520  1.00  0.00     2.722 C  
HETATM   13  C20BS8E A 401       7.738  -2.818  18.452  1.00  0.00     7.656 C  
ENDBRANCH  10  12
ENDBRANCH   3  10
ENDBRANCH   2   3
ENDBRANCH   1   2
BRANCH   1  14
HETATM   14  C03BS8E A 401      10.308  -0.006  22.601  1.00  0.00    -0.330 A  
HETATM   15  C01BS8E A 401      11.814   1.973  22.937  1.00  0.00     0.909 C  
HETATM   16  C04BS8E A 401      10.477  -1.373  22.444  1.00  0.00    -0.422 A  
HETATM   17  N07BS8E A 401      13.929  -0.401  22.793  1.00  0.00     6.027 N  
HETATM   18  N02BS8E A 401      11.553   0.557  22.753  1.00  0.00     0.873 NA 
HETATM   19  O09BS8E A 401      14.708  -1.354  22.133  1.00  0.00     4.267 OA 
HETATM   20  N05BS8E A 401      11.835  -1.658  22.497  1.00  0.00     0.924 NA 
HETATM   21  O08BS8E A 401      14.518   0.587  23.584  1.00  0.00     4.402 OA 
HETATM   22  C06BS8E A 401      12.495  -0.485  22.680  1.00  0.00     4.421 A  
ENDBRANCH   1  14
TORSDOF 7
ENDMDL
