MODEL        1
REMARK THIS MODEL IS IDENTICAL TO THE INPUT LIGAND AND NOT FROM DOCKING
REMARK 921   NORMALIZED FREE ENERGY PREDICTED BY IDOCK:    0.85 KCAL/MOL
REMARK 922        TOTAL FREE ENERGY PREDICTED BY IDOCK:    1.00 KCAL/MOL
REMARK 923 INTER-LIGAND FREE ENERGY PREDICTED BY IDOCK:    0.95 KCAL/MOL
REMARK 924 INTRA-LIGAND FREE ENERGY PREDICTED BY IDOCK:    0.06 KCAL/MOL
REMARK 927      BINDING AFFINITY PREDICTED BY RF-SCORE:    0.00 PKD
ROOT
HETATM    1  C10 T7V A 404      12.814   0.274  23.178  1.00  0.00    -0.381 A  
HETATM    2  C11 T7V A 404      13.822  -0.248  22.401  1.00  0.00    -0.555 A  
HETATM    3  C12 T7V A 404      13.562  -1.378  21.667  1.00  0.00    -0.422 A  
HETATM    4 CL1  T7V A 404      14.808  -2.063  20.667  1.00  0.00    -0.311 Cl 
HETATM    5  C14 T7V A 404      12.330  -1.985  21.698  1.00  0.00    -0.356 A  
HETATM    6  C08 T7V A 404      11.307  -1.466  22.469  1.00  0.00    -0.353 A  
HETATM    7  C09 T7V A 404      11.570  -0.331  23.227  1.00  0.00    -0.395 A  
ENDROOT
BRANCH   6   8
HETATM    8  C02 T7V A 404       9.971  -2.191  22.501  1.00  0.00    -0.307 C  
HETATM    9  C01 T7V A 404       8.841  -1.412  23.169  1.00  0.00    -0.223 C  
BRANCH   8  10
HETATM   10  N03 T7V A 404       9.553  -2.641  21.160  1.00  0.00    -0.100 N  
HETATM   11  C04 T7V A 404       9.162  -1.846  20.154  1.00  0.00     0.701 C  
HETATM   12  H03 T7V A 404       9.562  -3.645  20.982  1.00  0.00     0.000 HD 
HETATM   13  C06 T7V A 404       8.756  -2.500  18.831  1.00  0.00     4.040 C  
HETATM   14  O05 T7V A 404       9.109  -0.614  20.236  1.00  0.00    -0.390 OA 
ENDBRANCH   8  10
ENDBRANCH   6   8
TORSDOF 2
ENDMDL
