MODEL        1
REMARK THIS MODEL IS IDENTICAL TO THE INPUT LIGAND AND NOT FROM DOCKING
REMARK 921   NORMALIZED FREE ENERGY PREDICTED BY IDOCK:    1.30 KCAL/MOL
REMARK 922        TOTAL FREE ENERGY PREDICTED BY IDOCK:    1.61 KCAL/MOL
REMARK 923 INTER-LIGAND FREE ENERGY PREDICTED BY IDOCK:    1.45 KCAL/MOL
REMARK 924 INTRA-LIGAND FREE ENERGY PREDICTED BY IDOCK:    0.16 KCAL/MOL
REMARK 927      BINDING AFFINITY PREDICTED BY RF-SCORE:    0.00 PKD
ROOT
HETATM    1  C10 T6V A 404       8.582  -4.255  25.000  1.00  0.00    -0.293 A  
HETATM    2  C09 T6V A 404       9.572  -5.203  24.887  1.00  0.00    -0.515 A  
HETATM    3  C08 T6V A 404       9.584  -6.053  23.803  1.00  0.00     0.033 A  
HETATM    4  C07 T6V A 404       8.607  -5.963  22.825  1.00  0.00    -0.354 A  
HETATM    5  C06 T6V A 404       7.616  -4.988  22.919  1.00  0.00    -0.353 A  
HETATM    6  C11 T6V A 404       7.604  -4.141  24.025  1.00  0.00    -0.306 A  
ENDROOT
BRANCH   5   7
HETATM    7  N05 T6V A 404       6.568  -4.899  21.935  1.00  0.00    -0.316 N  
HETATM    8  C03 T6V A 404       8.187  -4.026  20.284  1.00  0.00     4.238 C  
HETATM    9  C02 T6V A 404       6.767  -4.319  20.705  1.00  0.00     0.808 C  
HETATM   10  O01 T6V A 404       5.832  -4.054  19.959  1.00  0.00    -0.110 OA 
BRANCH   7  11
HETATM   11  C12 T6V A 404       5.253  -5.434  22.271  1.00  0.00    -0.259 C  
HETATM   12  C13 T6V A 404       5.165  -6.916  21.960  1.00  0.00    -0.512 C  
HETATM   13  C14 T6V A 404       4.143  -7.490  22.569  1.00  0.00     0.302 C  
HETATM   14  S15 T6V A 404       3.872  -6.731  24.118  1.00  0.00    -0.192 S  
HETATM   15  O16 T6V A 404       4.443  -7.530  25.170  1.00  0.00    -0.313 OA 
HETATM   16  O17 T6V A 404       2.494  -6.343  24.254  1.00  0.00    -0.163 OA 
HETATM   17  C18 T6V A 404       4.899  -5.319  23.766  1.00  0.00    -0.248 C  
ENDBRANCH   7  11
ENDBRANCH   5   7
TORSDOF 2
ENDMDL
