REMARK  4 active torsions:
REMARK  status: ('A' for Active; 'I' for Inactive)
REMARK    1  A    between atoms: N1_1  and  C4_5
REMARK    2  A    between atoms: C5_3  and  C6_13
REMARK    3  A    between atoms: C6_13  and  C7_14
REMARK    4  A    between atoms: C1_8  and  O_11
ROOT
HETATM    1  N1  UGS A1001      10.648   3.365  22.176  1.00  0.00    -0.212 N
HETATM    2  O1  UGS A1001      11.220   3.628  24.357  1.00  0.00    -0.279 OA
HETATM    3  C5  UGS A1001      11.223   4.026  23.203  1.00  0.00     0.210 C
HETATM    4  H1  UGS A1001      10.589   3.884  21.300  1.00  0.00     0.138 HD
ENDROOT
BRANCH   1   5
HETATM    5  C4  UGS A1001      10.121   2.068  22.141  1.00  0.00     0.115 A
HETATM    6  C2  UGS A1001       9.182  -0.471  21.757  1.00  0.00     0.052 A
HETATM    7  C17 UGS A1001      10.354   1.112  23.138  1.00  0.00     0.073 A
HETATM    8  C1  UGS A1001       9.868  -0.169  22.925  1.00  0.00     0.080 A
HETATM    9  N   UGS A1001       9.431   1.805  21.019  1.00  0.00    -0.243 NA
HETATM   10  C3  UGS A1001       8.982   0.553  20.849  1.00  0.00     0.115 A
BRANCH   8  11
HETATM   11  O   UGS A1001      10.104  -1.012  23.980  1.00  0.00    -0.348 OA
HETATM   12  C   UGS A1001       9.641  -2.362  23.890  1.00  0.00     0.202 C
ENDBRANCH   8  11
ENDBRANCH   1   5
BRANCH   3  13
HETATM   13  C6  UGS A1001      11.894   5.328  22.819  1.00  0.00     0.127 C
BRANCH  13  14
HETATM   14  C7  UGS A1001      11.119   6.534  23.299  1.00  0.00    -0.038 A
HETATM   15  C9  UGS A1001       9.341   8.109  22.944  1.00  0.00     0.009 A
HETATM   16  C16 UGS A1001      11.490   7.203  24.439  1.00  0.00     0.012 A
HETATM   17  C15 UGS A1001      10.804   8.362  24.870  1.00  0.00    -0.018 A
HETATM   18  C10 UGS A1001       9.710   8.832  24.101  1.00  0.00    -0.018 A
HETATM   19  C8  UGS A1001      10.031   6.996  22.566  1.00  0.00     0.005 A
HETATM   20  C11 UGS A1001       9.037  10.005  24.520  1.00  0.00     0.008 A
HETATM   21  C12 UGS A1001       9.433  10.668  25.648  1.00  0.00     0.001 A
HETATM   22  C13 UGS A1001      10.498  10.205  26.405  1.00  0.00     0.001 A
HETATM   23  C14 UGS A1001      11.173   9.075  26.039  1.00  0.00     0.008 A
ENDBRANCH  13  14
ENDBRANCH   3  13
TORSDOF 4
