REMARK  4 active torsions:
REMARK  status: ('A' for Active; 'I' for Inactive)
REMARK    1  A    between atoms: N08_3  and  C05_7
REMARK    2  A    between atoms: N11_5  and  C14_15
REMARK    3  A    between atoms: C14_15  and  C15_16
REMARK    4  A    between atoms: C15_16  and  C16_17
ROOT
HETATM    1  C10 RMZ A 409       4.824   3.352 -22.290  1.00  0.00     0.100 C
HETATM    2  C09 RMZ A 409       3.267   3.517 -22.811  1.00  0.00     0.105 C
HETATM    3  N08 RMZ A 409       2.843   2.350 -23.636  1.00  0.00    -0.272 NA
HETATM    4  C13 RMZ A 409       3.168   1.085 -22.928  1.00  0.00     0.105 C
HETATM    5  N11 RMZ A 409       5.060   2.098 -21.669  1.00  0.00    -0.300 NA
HETATM    6  C12 RMZ A 409       4.667   0.959 -22.414  1.00  0.00     0.100 C
ENDROOT
BRANCH   3   7
HETATM    7  C05 RMZ A 409       1.359   2.422 -23.921  1.00  0.00     0.019 A
HETATM    8  C03 RMZ A 409      -0.600   3.775 -24.768  1.00  0.00    -0.046 A
HETATM    9  C04 RMZ A 409       0.775   3.603 -24.469  1.00  0.00     0.023 A
HETATM   10  C02 RMZ A 409      -1.507   2.722 -24.522  1.00  0.00    -0.047 A
HETATM   11  C06 RMZ A 409       0.422   1.400 -23.697  1.00  0.00     0.020 A
HETATM   12  C26 RMZ A 409      -1.137   5.055 -25.356  1.00  0.00     0.044 C
HETATM   13  C07 RMZ A 409      -0.949   1.551 -23.989  1.00  0.00     0.005 A
HETATM   14  C01 RMZ A 409      -2.990   2.844 -24.831  1.00  0.00     0.044 C
ENDBRANCH   3   7
BRANCH   5  15
HETATM   15  C14 RMZ A 409       6.550   1.887 -21.268  1.00  0.00     0.090 C
BRANCH  15  16
HETATM   16  C15 RMZ A 409       7.131   3.155 -20.597  1.00  0.00     0.063 C
BRANCH  16  17
HETATM   17  C16 RMZ A 409       7.856   2.944 -19.247  1.00  0.00     0.009 C
HETATM   18  C17 RMZ A 409       9.384   2.755 -19.282  1.00  0.00     0.001 A
HETATM   19  C22 RMZ A 409      10.006   3.828 -18.598  1.00  0.00     0.042 A
HETATM   20  C21 RMZ A 409      11.383   3.913 -18.480  1.00  0.00     0.013 A
HETATM   21  C23 RMZ A 409       8.932   4.690 -18.129  1.00  0.00     0.236 C
HETATM   22  N25 RMZ A 409       7.707   4.206 -18.469  1.00  0.00    -0.227 N
HETATM   23  O24 RMZ A 409       9.021   5.762 -17.476  1.00  0.00    -0.274 OA
HETATM   24  C20 RMZ A 409      12.206   2.927 -19.035  1.00  0.00     0.001 A
HETATM   25  H25 RMZ A 409       6.818   4.643 -18.227  1.00  0.00     0.136 HD
HETATM   26  C19 RMZ A 409      11.622   1.859 -19.710  1.00  0.00     0.001 A
HETATM   27  C18 RMZ A 409      10.219   1.776 -19.830  1.00  0.00     0.010 A
ENDBRANCH  16  17
ENDBRANCH  15  16
ENDBRANCH   5  15
TORSDOF 4
