MODEL        1
REMARK THIS MODEL IS IDENTICAL TO THE INPUT LIGAND AND NOT FROM DOCKING
REMARK 921   NORMALIZED FREE ENERGY PREDICTED BY IDOCK:    2.14 KCAL/MOL
REMARK 922        TOTAL FREE ENERGY PREDICTED BY IDOCK:    2.25 KCAL/MOL
REMARK 923 INTER-LIGAND FREE ENERGY PREDICTED BY IDOCK:    2.39 KCAL/MOL
REMARK 924 INTRA-LIGAND FREE ENERGY PREDICTED BY IDOCK:   -0.14 KCAL/MOL
REMARK 927      BINDING AFFINITY PREDICTED BY RF-SCORE:    0.00 PKD
ROOT
HETATM    1  N1  T4D A 404       7.046  -2.426  23.726  1.00  0.00    -0.219 N  
HETATM    2  C3  T4D A 404       7.312  -1.514  22.606  1.00  0.00    -0.263 C  
HETATM    3  C5  T4D A 404       6.636  -4.293  22.294  1.00  0.00    -0.294 C  
HETATM    4  O   T4D A 404       5.629  -4.619  19.740  1.00  0.00    -0.478 OA 
HETATM    5  C1  T4D A 404       6.436  -3.720  19.927  1.00  0.00     1.340 C  
HETATM    6  C4  T4D A 404       6.041  -3.443  23.384  1.00  0.00    -0.258 C  
HETATM    7  C2  T4D A 404       7.875  -2.346  21.481  1.00  0.00    -0.072 C  
HETATM    8  N   T4D A 404       6.968  -3.452  21.141  1.00  0.00    -0.016 N  
HETATM    9  C   T4D A 404       6.878  -2.883  18.765  1.00  0.00     4.528 C  
ENDROOT
BRANCH   1  10
HETATM   10  S   T4D A 404       7.127  -1.892  25.274  1.00  0.00    -0.176 S  
HETATM   11  O2  T4D A 404       5.788  -1.674  25.723  1.00  0.00    -0.116 OA 
HETATM   12  O1  T4D A 404       8.075  -0.824  25.308  1.00  0.00    -0.182 OA 
BRANCH  10  13
HETATM   13  C6  T4D A 404       7.802  -3.261  26.173  1.00  0.00    -0.260 A  
HETATM   14  C10 T4D A 404       9.560  -4.890  26.542  1.00  0.00    -0.426 A  
HETATM   15  N2  T4D A 404      10.474  -2.664  24.003  1.00  0.00    -0.405 NA 
HETATM   16  C9  T4D A 404       8.815  -5.448  27.563  1.00  0.00     0.163 A  
HETATM   17  C11 T4D A 404       9.054  -3.805  25.835  1.00  0.00    -0.279 A  
HETATM   18  C12 T4D A 404       9.845  -3.225  24.781  1.00  0.00    -0.210 C  
HETATM   19  C8  T4D A 404       7.578  -4.937  27.883  1.00  0.00     0.178 A  
HETATM   20  C7  T4D A 404       7.062  -3.857  27.191  1.00  0.00    -0.162 A  
ENDBRANCH  10  13
ENDBRANCH   1  10
TORSDOF 2
ENDMDL
