REMARK  2 active torsions:
REMARK  status: ('A' for Active; 'I' for Inactive)
REMARK    1  A    between atoms: C7_7  and  C6_10
REMARK    2  A    between atoms: N_12  and  C5_14
ROOT
HETATM    1  N1  T7G A 404       6.779  -4.066  21.110  1.00  0.00    -0.245 N
HETATM    2  C10 T7G A 404       7.725  -3.192  21.809  1.00  0.00     0.093 C
HETATM    3  C12 T7G A 404       6.407  -3.898  19.825  1.00  0.00     0.200 C
HETATM    4  C13 T7G A 404       7.107  -2.828  19.030  1.00  0.00     0.105 C
HETATM    5  C11 T7G A 404       7.072  -2.597  23.024  1.00  0.00     0.028 C
HETATM    6  O2  T7G A 404       5.546  -4.593  19.298  1.00  0.00    -0.280 OA
HETATM    7  C7  T7G A 404       6.553  -3.702  23.946  1.00  0.00     0.074 C
HETATM    8  C9  T7G A 404       6.236  -5.147  21.943  1.00  0.00     0.093 C
HETATM    9  C8  T7G A 404       5.567  -4.580  23.172  1.00  0.00     0.028 C
ENDROOT
BRANCH   7  10
HETATM   10  C6  T7G A 404       5.964  -3.091  25.204  1.00  0.00     0.208 C
HETATM   11  O1  T7G A 404       4.786  -3.225  25.515  1.00  0.00    -0.279 OA
HETATM   12  N   T7G A 404       6.869  -2.399  25.935  1.00  0.00    -0.226 N
HETATM   13  H   T7G A 404       7.839  -2.683  25.799  1.00  0.00     0.136 HD
BRANCH  12  14
HETATM   14  C5  T7G A 404       6.679  -1.347  26.855  1.00  0.00     0.052 A
HETATM   15  C   T7G A 404       5.896  -0.231  26.541  1.00  0.00     0.091 A
HETATM   16  C1  T7G A 404       5.762   0.790  27.484  1.00  0.00     0.034 A
HETATM   17  O   T7G A 404       5.287  -0.204  25.330  1.00  0.00    -0.358 OA
HETATM   18  H   T7G A 404       4.755   0.554  25.117  1.00  0.00     0.217 HD
HETATM   19  C2  T7G A 404       6.412   0.693  28.703  1.00  0.00     0.003 A
HETATM   20  C3  T7G A 404       7.195  -0.404  28.994  1.00  0.00     0.002 A
HETATM   21  C4  T7G A 404       7.339  -1.424  28.066  1.00  0.00     0.022 A
ENDBRANCH  12  14
ENDBRANCH   7  10
TORSDOF 2
