MODEL        1
REMARK THIS MODEL IS IDENTICAL TO THE INPUT LIGAND AND NOT FROM DOCKING
REMARK 921   NORMALIZED FREE ENERGY PREDICTED BY IDOCK:   -3.95 KCAL/MOL
REMARK 922        TOTAL FREE ENERGY PREDICTED BY IDOCK:   -5.11 KCAL/MOL
REMARK 923 INTER-LIGAND FREE ENERGY PREDICTED BY IDOCK:   -5.33 KCAL/MOL
REMARK 924 INTRA-LIGAND FREE ENERGY PREDICTED BY IDOCK:    0.23 KCAL/MOL
REMARK 927      BINDING AFFINITY PREDICTED BY RF-SCORE:    0.00 PKD
ROOT
HETATM    1  N1  T9J A 404       7.991   2.594  22.440  1.00  0.00    -0.282 N  
HETATM    2  C2  T9J A 404       7.281   3.596  22.950  1.00  0.00    -0.205 C  
HETATM    3  C1  T9J A 404       7.712   4.976  22.568  1.00  0.00    -0.146 C  
HETATM    4  H1  T9J A 404       8.649   2.794  21.687  1.00  0.00     0.000 HD 
HETATM    5  O1  T9J A 404       6.307   3.385  23.664  1.00  0.00    -0.147 OA 
ENDROOT
BRANCH   1   6
HETATM    6  C3  T9J A 404       7.866   1.223  22.914  1.00  0.00    -0.220 C  
BRANCH   6   7
HETATM    7  C4  T9J A 404       6.526   0.583  22.515  1.00  0.00    -0.310 C  
BRANCH   7   8
HETATM    8  C5  T9J A 404       6.273   0.626  21.028  1.00  0.00    -0.374 A  
HETATM    9  C6  T9J A 404       5.386   1.538  20.475  1.00  0.00    -0.398 A  
HETATM   10  H2  T9J A 404       6.175   0.192  16.357  1.00  0.00     0.000 HD 
HETATM   11  C7  T9J A 404       5.174   1.599  19.108  1.00  0.00    -0.506 A  
HETATM   12  C10 T9J A 404       6.951  -0.224  20.169  1.00  0.00    -0.412 A  
HETATM   13  C8  T9J A 404       5.863   0.737  18.273  1.00  0.00    -0.559 A  
HETATM   14  C9  T9J A 404       6.755  -0.172  18.802  1.00  0.00    -0.492 A  
HETATM   15  O2  T9J A 404       5.702   0.784  16.930  1.00  0.00    -0.203 OA 
ENDBRANCH   7   8
ENDBRANCH   6   7
BRANCH   6  16
HETATM   16  C11 T9J A 404       9.043   0.453  22.330  1.00  0.00    -0.259 C  
HETATM   17  N2  T9J A 404       9.096  -0.844  22.611  1.00  0.00    -0.232 N  
HETATM   18  H2  T9J A 404       8.505  -1.223  23.351  1.00  0.00     0.000 HD 
HETATM   19  O3  T9J A 404       9.866   1.017  21.611  1.00  0.00    -0.354 OA 
BRANCH  17  20
HETATM   20  C12 T9J A 404       9.980  -1.728  21.882  1.00  0.00    -0.174 C  
BRANCH  20  21
HETATM   21  C13 T9J A 404      11.351  -1.592  22.376  1.00  0.00    -0.265 C  
HETATM   22  C14 T9J A 404      12.458  -1.642  22.833  1.00  0.00    -0.212 C  
HETATM   23 BR1  T9J A 404      14.180  -1.925  23.660  1.00  0.00     0.417 Br 
ENDBRANCH  20  21
ENDBRANCH  17  20
ENDBRANCH   6  16
ENDBRANCH   1   6
TORSDOF 6
ENDMDL
