REMARK  5 active torsions:
REMARK  status: ('A' for Active; 'I' for Inactive)
REMARK    1  A    between atoms: C10_1  and  N12_3
REMARK    2  A    between atoms: C10_1  and  N02_8
REMARK    3  A    between atoms: N02_8  and  C03_10
REMARK    4  A    between atoms: N12_3  and  C13_5
REMARK    5  A    between atoms: C03_10  and  C04_11
ROOT
HETATM    1  C10 U0P A 404       6.530  -3.100  20.451  1.00  0.00     0.276 C
HETATM    2  O11 U0P A 404       5.755  -3.639  19.724  1.00  0.00    -0.261 OA
ENDROOT
BRANCH   1   3
HETATM    3  N12 U0P A 404       6.605  -3.466  21.874  1.00  0.00    -0.241 N
HETATM    4  H12 U0P A 404       7.275  -2.994  22.481  1.00  0.00     0.132 HD
BRANCH   3   5
HETATM    5  C13 U0P A 404       5.726  -4.504  22.429  1.00  0.00     0.062 C
HETATM    6  C15 U0P A 404       5.992  -5.928  21.933  1.00  0.00     0.020 C
HETATM    7  C14 U0P A 404       6.416  -5.515  23.349  1.00  0.00     0.020 C
ENDBRANCH   3   5
ENDBRANCH   1   3
BRANCH   1   8
HETATM    8  N02 U0P A 404       7.417  -2.067  19.911  1.00  0.00    -0.228 N
HETATM    9  C01 U0P A 404       8.379  -1.393  20.792  1.00  0.00     0.115 C
BRANCH   8  10
HETATM   10  C03 U0P A 404       7.340  -1.676  18.492  1.00  0.00     0.151 C
BRANCH  10  11
HETATM   11  C04 U0P A 404       6.501  -0.383  18.397  1.00  0.00     0.085 A
HETATM   12  C05 U0P A 404       5.526   0.018  19.308  1.00  0.00     0.057 A
HETATM   13  C06 U0P A 404       5.025   1.213  18.870  1.00  0.00     0.084 A
HETATM   14  C07 U0P A 404       3.929   2.033  19.552  1.00  0.00     0.074 C
HETATM   15  O08 U0P A 404       5.665   1.522  17.753  1.00  0.00    -0.217 OA
HETATM   16  N09 U0P A 404       6.582   0.564  17.451  1.00  0.00    -0.131 NA
ENDBRANCH  10  11
ENDBRANCH   8  10
ENDBRANCH   1   8
TORSDOF 5
