MODEL        1
REMARK THIS MODEL IS IDENTICAL TO THE INPUT LIGAND AND NOT FROM DOCKING
REMARK 921   NORMALIZED FREE ENERGY PREDICTED BY IDOCK:    2.39 KCAL/MOL
REMARK 922        TOTAL FREE ENERGY PREDICTED BY IDOCK:    2.52 KCAL/MOL
REMARK 923 INTER-LIGAND FREE ENERGY PREDICTED BY IDOCK:    2.53 KCAL/MOL
REMARK 924 INTRA-LIGAND FREE ENERGY PREDICTED BY IDOCK:   -0.01 KCAL/MOL
REMARK 927      BINDING AFFINITY PREDICTED BY RF-SCORE:    0.00 PKD
ROOT
HETATM    1  N1  T8V A 404       4.936  -4.636  23.570  1.00  0.00    -0.232 NA 
HETATM    2  C6  T8V A 404       5.861  -4.455  22.652  1.00  0.00    -0.295 A  
HETATM    3 CL1  T8V A 404       6.370  -5.863  21.785  1.00  0.00    -0.568 Cl 
HETATM    4  C2  T8V A 404       6.417  -3.214  22.374  1.00  0.00    -0.303 A  
HETATM    5  C5  T8V A 404       4.525  -3.572  24.266  1.00  0.00    -0.232 A  
HETATM    6  C3  T8V A 404       5.984  -2.112  23.108  1.00  0.00    -0.209 A  
HETATM    7  C4  T8V A 404       5.016  -2.300  24.071  1.00  0.00     0.369 A  
ENDROOT
BRANCH   4   8
HETATM    8  N   T8V A 404       7.412  -3.109  21.380  1.00  0.00    -0.365 N  
HETATM    9  H   T8V A 404       8.369  -3.005  21.716  1.00  0.00     0.000 HD 
HETATM   10  C1  T8V A 404       7.257  -3.129  20.046  1.00  0.00     0.829 C  
HETATM   11  C   T8V A 404       8.455  -2.555  19.338  1.00  0.00     4.108 C  
HETATM   12  O   T8V A 404       6.272  -3.538  19.454  1.00  0.00    -0.575 OA 
ENDBRANCH   4   8
TORSDOF 1
ENDMDL
