MODEL        1
REMARK THIS MODEL IS IDENTICAL TO THE INPUT LIGAND AND NOT FROM DOCKING
REMARK 921   NORMALIZED FREE ENERGY PREDICTED BY IDOCK:    1.55 KCAL/MOL
REMARK 922        TOTAL FREE ENERGY PREDICTED BY IDOCK:    1.50 KCAL/MOL
REMARK 923 INTER-LIGAND FREE ENERGY PREDICTED BY IDOCK:    1.73 KCAL/MOL
REMARK 924 INTRA-LIGAND FREE ENERGY PREDICTED BY IDOCK:   -0.23 KCAL/MOL
REMARK 927      BINDING AFFINITY PREDICTED BY RF-SCORE:    0.00 PKD
ROOT
HETATM    1  N1  T6M A 404       5.924  -5.437  24.469  1.00  0.00    -0.300 N  
HETATM    2  C   T6M A 404       7.951  -3.598  20.317  1.00  0.00     4.139 C  
HETATM    3  C3  T6M A 404       4.986  -5.763  23.383  1.00  0.00    -0.287 C  
HETATM    4  C5  T6M A 404       7.586  -4.667  22.926  1.00  0.00    -0.385 C  
HETATM    5  C2  T6M A 404       5.788  -6.138  22.165  1.00  0.00    -0.292 C  
HETATM    6  O   T6M A 404       5.907  -4.658  19.750  1.00  0.00    -0.254 OA 
HETATM    7  C1  T6M A 404       6.771  -4.487  20.598  1.00  0.00     1.072 C  
HETATM    8  N   T6M A 404       6.718  -5.063  21.815  1.00  0.00    -0.359 N  
HETATM    9  C4  T6M A 404       6.757  -4.282  24.117  1.00  0.00    -0.307 C  
ENDROOT
BRANCH   1  10
HETATM   10  S   T6M A 404       5.350  -5.498  25.999  1.00  0.00    -0.237 S  
HETATM   11  O2  T6M A 404       4.778  -6.796  26.161  1.00  0.00    -0.293 OA 
HETATM   12  O1  T6M A 404       6.420  -5.072  26.844  1.00  0.00    -0.237 OA 
BRANCH  10  13
HETATM   13  C6  T6M A 404       4.046  -4.314  26.087  1.00  0.00    -0.144 A  
HETATM   14  C8  T6M A 404       3.313  -2.073  26.454  1.00  0.00     0.092 A  
HETATM   15  C7  T6M A 404       4.334  -3.003  26.403  1.00  0.00    -0.185 A  
HETATM   16  C9  T6M A 404       2.026  -2.475  26.177  1.00  0.00     0.076 A  
HETATM   17  C10 T6M A 404       1.732  -3.779  25.853  1.00  0.00    -0.167 A  
HETATM   18 CL1  T6M A 404       0.738  -1.308  26.241  1.00  0.00    -0.040 Cl 
HETATM   19  C11 T6M A 404       2.755  -4.706  25.801  1.00  0.00    -0.157 A  
ENDBRANCH  10  13
ENDBRANCH   1  10
TORSDOF 2
ENDMDL
