REMARK  9 active torsions:
REMARK  status: ('A' for Active; 'I' for Inactive)
REMARK    1  A    between atoms: C3_10  and  C41_34
REMARK    2  A    between atoms: N5_30  and  C19_39
REMARK    3  A    between atoms: C19_39  and  C20_40
REMARK    4  A    between atoms: C19_39  and  C25_52
REMARK    5  A    between atoms: C25_52  and  C26_53
REMARK    6  A    between atoms: C21_41  and  C22_42
REMARK    7  A    between atoms: C22_42  and  O_44
REMARK    8  A    between atoms: O_44  and  C_45
REMARK    9  A    between atoms: C_45  and  C6_46
ROOT
HETATM    1  C4  02J C   1     -10.425   3.420  72.447  1.00  0.00     0.065 A
ATOM      2  CA  ALA C   2     -13.166   7.625  71.495  1.00  0.00     0.000 C
HETATM    3  C5  02J C   1      -9.924   2.857  73.642  1.00  0.00     0.085 A
HETATM    4  C6  02J C   1      -9.345   1.458  73.806  1.00  0.00     0.074 C
HETATM    5  O1  02J C   1     -10.048   3.755  74.575  1.00  0.00    -0.217 OA
ATOM      6  C   ALA C   2     -12.115   8.750  71.241  1.00  0.00     0.000 C
HETATM    7  N2  02J C   1     -10.585   4.861  74.114  1.00  0.00    -0.123 NA
ATOM      8  O   ALA C   2     -11.466   9.159  72.125  1.00  0.00    -0.410 OA
ATOM      9  CB  ALA C   2     -14.397   8.218  72.132  1.00  0.00     0.000 C
HETATM   10  C3  02J C   1     -10.848   4.738  72.810  1.00  0.00     0.151 A
ATOM     11  H1  ALA C   2     -10.516   9.159  72.125  1.00  0.00     0.205 HD
ATOM     12  H2  ALA C   2     -11.712  10.077  72.125  1.00  0.00     0.205 HD
ATOM     13  N   VAL C   3     -11.943   9.281  69.911  1.00  0.00     0.000 ?
ATOM     14  CD2 LEU C   4     -14.017  14.514  71.861  1.00  0.00     0.000 C
ATOM     15  CD1 LEU C   4     -12.470  16.162  72.925  1.00  0.00     0.000 C
ATOM     16  CA  VAL C   3     -10.955  10.336  69.666  1.00  0.00     0.000 C
ATOM     17  CG  LEU C   4     -12.566  14.876  72.122  1.00  0.00     0.000 C
ATOM     18  C   VAL C   3     -11.663  11.606  69.273  1.00  0.00     0.000 C
ATOM     19  H2  LEU C   4     -10.852  15.360  68.036  1.00  0.00     0.205 HD
ATOM     20  H1  LEU C   4      -9.656  14.442  68.036  1.00  0.00     0.205 HD
ATOM     21  O   VAL C   3     -12.381  11.617  68.328  1.00  0.00    -0.410 OA
ATOM     22  CB  VAL C   3     -10.004   9.895  68.515  1.00  0.00     0.000 C
ATOM     23  H2  VAL C   3     -12.627  12.535  68.328  1.00  0.00     0.205 HD
ATOM     24  H1  VAL C   3     -11.431  11.617  68.328  1.00  0.00     0.205 HD
ATOM     25  CG1 VAL C   3      -9.130  11.086  68.012  1.00  0.00     0.000 C
ATOM     26  CG2 VAL C   3      -9.116   8.687  68.955  1.00  0.00     0.000 C
ATOM     27  N   LEU C   4     -11.480  12.678  70.044  1.00  0.00     0.000 ?
ATOM     28  CA  LEU C   4     -12.170  13.963  69.746  1.00  0.00     0.000 C
ATOM     29  C   LEU C   4     -11.804  14.454  68.341  1.00  0.00     0.101 C
HETATM   30  N5  PJE C   5     -12.282  14.994  67.123  1.00  0.00    -0.313 NA
ATOM     31  O   LEU C   4     -10.606  14.442  68.036  1.00  0.00    -0.410 OA
HETATM   32  H5  PJE C   5     -13.300  15.041  67.154  1.00  0.00     0.122 HD
ATOM     33  CB  LEU C   4     -11.795  14.995  70.811  1.00  0.00     0.000 C
ENDROOT
BRANCH  10  34
HETATM   34  C41 02J C   1     -11.475   5.798  71.891  1.00  0.00     0.249 C
ATOM     35  H2  ALA C   2     -12.292   7.080  73.239  1.00  0.00     0.127 HD
ATOM     36  H1  ALA C   2     -12.999   7.329  71.764  1.00  0.00     0.127 HD
HETATM   37  O42 02J C   1     -11.062   5.943  70.793  1.00  0.00    -0.272 OA
ATOM     38  N   ALA C   2     -12.583   6.625  72.374  1.00  0.00    -0.267 N
ENDBRANCH  10  34
BRANCH  30  39
HETATM   39  C19 PJE C   5     -11.832  15.491  65.878  1.00  0.00     0.077 C
BRANCH  39  40
HETATM   40  C20 PJE C   5     -12.422  16.890  65.699  1.00  0.00    -0.003 C
HETATM   41  C21 PJE C   5     -11.667  17.948  65.902  1.00  0.00     0.075 C
BRANCH  41  42
HETATM   42  C22 PJE C   5     -10.208  17.820  66.347  1.00  0.00     0.287 C
HETATM   43  O7  PJE C   5      -9.943  17.785  67.572  1.00  0.00    -0.260 OA
BRANCH  42  44
HETATM   44  O   010 C   6      -8.911  17.849  65.703  1.00  0.00    -0.307 OA
BRANCH  44  45
HETATM   45  C   010 C   6      -7.901  17.649  66.696  1.00  0.00     0.206 C
BRANCH  45  46
HETATM   46  C6  010 C   6      -7.153  18.994  66.896  1.00  0.00    -0.021 A
HETATM   47  C1  010 C   6      -5.810  18.997  67.259  1.00  0.00     0.006 A
HETATM   48  C2  010 C   6      -5.138  20.205  67.439  1.00  0.00     0.000 A
HETATM   49  C3  010 C   6      -5.815  21.414  67.257  1.00  0.00     0.000 A
HETATM   50  C4  010 C   6      -7.156  21.406  66.898  1.00  0.00     0.000 A
HETATM   51  C5  010 C   6      -7.831  20.201  66.715  1.00  0.00     0.006 A
ENDBRANCH  45  46
ENDBRANCH  44  45
ENDBRANCH  42  44
ENDBRANCH  41  42
ENDBRANCH  39  40
BRANCH  39  52
HETATM   52  C25 PJE C   5     -12.437  14.594  64.806  1.00  0.00     0.036 C
BRANCH  52  53
HETATM   53  C26 PJE C   5     -11.835  13.199  64.838  1.00  0.00     0.083 C
HETATM   54  C29 PJE C   5     -12.428  12.306  63.787  1.00  0.00     0.245 C
HETATM   55  C27 PJE C   5     -10.368  13.241  64.572  1.00  0.00     0.036 C
HETATM   56  C28 PJE C   5     -10.110  11.892  63.885  1.00  0.00     0.146 C
HETATM   57  O8  PJE C   5     -13.559  12.260  63.495  1.00  0.00    -0.271 OA
HETATM   58  N6  PJE C   5     -11.386  11.531  63.232  1.00  0.00    -0.250 NA
ENDBRANCH  52  53
ENDBRANCH  39  52
ENDBRANCH  30  39
TORSDOF 9
