REMARK  9 active torsions:
REMARK  status: ('A' for Active; 'I' for Inactive)
REMARK    1  A    between atoms: N1_1  and  C5_5
REMARK    2  A    between atoms: C5_5  and  C6_6
REMARK    3  A    between atoms: C4_2  and  C3_9
REMARK    4  A    between atoms: C3_9  and  N_10
REMARK    5  A    between atoms: C6_6  and  O2_7
REMARK    6  A    between atoms: C3_9  and  C8_25
REMARK    7  A    between atoms: N_10  and  C13_13
REMARK    8  A    between atoms: C2_12  and  C1_23
REMARK    9  A    between atoms: C16_16  and  C19_19
ROOT
HETATM    1  N1  VEM A1001       7.898   1.570  22.985  1.00  0.00    -0.254 N
HETATM    2  C4  VEM A1001       8.070   0.956  21.819  1.00  0.00     0.223 C
HETATM    3  O1  VEM A1001       8.975   1.236  21.035  1.00  0.00    -0.277 OA
HETATM    4  H1  VEM A1001       7.228   1.191  23.654  1.00  0.00     0.130 HD
ENDROOT
BRANCH   1   5
HETATM    5  C5  VEM A1001       8.642   2.768  23.329  1.00  0.00     0.117 C
BRANCH   5   6
HETATM    6  C6  VEM A1001       8.025   3.958  22.665  1.00  0.00     0.175 C
BRANCH   6   7
HETATM    7  O2  VEM A1001       9.004   4.946  22.529  1.00  0.00    -0.382 OA
HETATM    8  C7  VEM A1001       8.411   6.186  22.266  1.00  0.00     0.194 C
ENDBRANCH   6   7
ENDBRANCH   5   6
ENDBRANCH   1   5
BRANCH   2   9
HETATM    9  C3  VEM A1001       7.010  -0.096  21.458  1.00  0.00     0.183 C
BRANCH   9  10
HETATM   10  N   VEM A1001       7.467  -1.476  21.754  1.00  0.00    -0.198 N
HETATM   11  O   VEM A1001       5.491  -2.357  21.104  1.00  0.00    -0.279 OA
HETATM   12  C2  VEM A1001       6.654  -2.525  21.434  1.00  0.00     0.208 C
BRANCH  10  13
HETATM   13  C13 VEM A1001       8.718  -1.669  22.433  1.00  0.00     0.026 A
HETATM   14  C17 VEM A1001       9.964  -1.948  24.476  1.00  0.00     0.006 A
HETATM   15  C14 VEM A1001       9.915  -1.664  21.723  1.00  0.00     0.020 A
HETATM   16  C16 VEM A1001      11.169  -1.908  23.779  1.00  0.00    -0.042 A
HETATM   17  C18 VEM A1001       8.751  -1.818  23.820  1.00  0.00     0.020 A
HETATM   18  C15 VEM A1001      11.121  -1.775  22.392  1.00  0.00     0.006 A
BRANCH  16  19
HETATM   19  C19 VEM A1001      12.507  -1.912  24.534  1.00  0.00    -0.013 C
HETATM   20  C22 VEM A1001      12.632  -0.616  25.332  1.00  0.00     0.015 C
HETATM   21  C21 VEM A1001      12.613  -3.107  25.502  1.00  0.00     0.015 C
HETATM   22  C20 VEM A1001      13.707  -1.981  23.588  1.00  0.00     0.015 C
ENDBRANCH  16  19
ENDBRANCH  10  13
BRANCH  12  23
HETATM   23  C1  VEM A1001       7.247  -3.906  21.429  1.00  0.00     0.089 C
HETATM   24  C   VEM A1001       7.131  -4.521  20.071  1.00  0.00     0.013 C
ENDBRANCH  12  23
ENDBRANCH   9  10
BRANCH   9  25
HETATM   25  C8  VEM A1001       6.352   0.202  20.122  1.00  0.00    -0.003 A
HETATM   26  C9  VEM A1001       6.945  -0.147  18.916  1.00  0.00     0.116 A
HETATM   27  C11 VEM A1001       4.776   1.473  18.835  1.00  0.00     0.020 A
HETATM   28  N2  VEM A1001       6.534   0.290  17.721  1.00  0.00    -0.263 NA
HETATM   29  C10 VEM A1001       5.462   1.088  17.698  1.00  0.00     0.111 A
HETATM   30  C12 VEM A1001       5.233   1.019  20.056  1.00  0.00     0.008 A
ENDBRANCH   9  25
ENDBRANCH   2   9
TORSDOF 9
