MODEL        1
REMARK THIS MODEL IS IDENTICAL TO THE INPUT LIGAND AND NOT FROM DOCKING
REMARK 921   NORMALIZED FREE ENERGY PREDICTED BY IDOCK:   -5.34 KCAL/MOL
REMARK 922        TOTAL FREE ENERGY PREDICTED BY IDOCK:   -6.13 KCAL/MOL
REMARK 923 INTER-LIGAND FREE ENERGY PREDICTED BY IDOCK:   -6.27 KCAL/MOL
REMARK 924 INTRA-LIGAND FREE ENERGY PREDICTED BY IDOCK:    0.14 KCAL/MOL
REMARK 927      BINDING AFFINITY PREDICTED BY RF-SCORE:    0.00 PKD
ROOT
HETATM    1  N1  HWH A 404      11.486   5.340  22.697  1.00  0.00    -0.558 N  
HETATM    2  C2  HWH A 404      10.335   5.872  23.407  1.00  0.00    -0.397 C  
HETATM    3  H1  HWH A 404      11.418   5.196  21.689  1.00  0.00     0.000 HD 
HETATM    4  O1  HWH A 404      10.376   6.062  24.571  1.00  0.00    -0.226 OA 
HETATM    5  C1  HWH A 404       9.054   6.174  22.639  1.00  0.00    -0.371 C  
ENDROOT
BRANCH   1   6
HETATM    6  C3  HWH A 404      12.727   5.006  23.369  1.00  0.00    -0.444 C  
BRANCH   6   7
HETATM    7  C4  HWH A 404      13.104   3.578  22.969  1.00  0.00    -0.343 C  
BRANCH   7   8
HETATM    8  C5  HWH A 404      12.116   2.494  23.431  1.00  0.00    -0.471 A  
HETATM    9  C8  HWH A 404      12.177   1.111  23.123  1.00  0.00    -0.496 A  
HETATM   10  C7  HWH A 404      11.093   0.521  23.728  1.00  0.00    -0.307 A  
HETATM   11  N2  HWH A 404      10.401   1.496  24.384  1.00  0.00    -0.363 NA 
HETATM   12  C12 HWH A 404      10.864  -0.875  23.604  1.00  0.00    -0.418 A  
HETATM   13  C6  HWH A 404      10.992   2.672  24.221  1.00  0.00    -0.195 A  
HETATM   14  H2  HWH A 404       9.549   1.343  24.924  1.00  0.00     0.000 HD 
HETATM   15  C11 HWH A 404      11.745  -1.654  22.859  1.00  0.00    -0.385 A  
HETATM   16  C10 HWH A 404      12.849  -1.061  22.237  1.00  0.00    -0.377 A  
HETATM   17  F1  HWH A 404      13.716  -1.817  21.506  1.00  0.00    -0.579 F  
HETATM   18  C9  HWH A 404      13.073   0.309  22.366  1.00  0.00    -0.342 A  
ENDBRANCH   7   8
ENDBRANCH   6   7
ENDBRANCH   1   6
TORSDOF 3
ENDMDL
