REMARK 11 active torsions:
REMARK  status: ('A' for Active; 'I' for Inactive)
REMARK    1  A    between atoms: C28_1  and  N29_3
REMARK    2  A    between atoms: C28_1  and  N27_9
REMARK    3  A    between atoms: N27_9  and  C22_11
REMARK    4  A    between atoms: C22_11  and  C21_12
REMARK    5  A    between atoms: C22_11  and  C23_40
REMARK    6  A    between atoms: C13_19  and  C12_22
REMARK    7  A    between atoms: N11_25  and  C05_26
REMARK    8  A    between atoms: C05_26  and  C06_27
REMARK    9  A    between atoms: C05_26  and  C03_32
REMARK   10  A    between atoms: C06_27  and  C07_28
REMARK   11  A    between atoms: C03_32  and  C02_35
ROOT
HETATM    1  C28 U5G A 401      12.205 -21.633  22.992  1.00  0.00     0.274 C
HETATM    2  O34 U5G A 401      12.509 -21.851  24.131  1.00  0.00    -0.261 OA
ENDROOT
BRANCH   1   3
HETATM    3  N29 U5G A 401      12.737 -20.610  22.205  1.00  0.00    -0.240 N
HETATM    4  C31 U5G A 401      15.097 -20.926  22.400  1.00  0.00     0.027 C
HETATM    5  C33 U5G A 401      13.978 -19.270  23.932  1.00  0.00     0.027 C
HETATM    6  C32 U5G A 401      14.043 -18.783  21.446  1.00  0.00     0.027 C
HETATM    7  C30 U5G A 401      13.958 -19.847  22.538  1.00  0.00     0.019 C
HETATM    8  H29 U5G A 401      12.250 -20.373  21.341  1.00  0.00     0.132 HD
ENDBRANCH   1   3
BRANCH   1   9
HETATM    9  N27 U5G A 401      11.140 -22.294  22.373  1.00  0.00    -0.233 N
HETATM   10  H27 U5G A 401      10.846 -22.022  21.435  1.00  0.00     0.132 HD
BRANCH   9  11
HETATM   11  C22 U5G A 401      10.470 -23.341  23.050  1.00  0.00     0.150 C
BRANCH  11  12
HETATM   12  C21 U5G A 401      10.594 -24.583  22.196  1.00  0.00     0.222 C
HETATM   13  C18 U5G A 401      14.430 -28.636  23.623  1.00  0.00     0.011 C
HETATM   14  N20 U5G A 401      11.055 -25.775  22.770  1.00  0.00    -0.231 N
HETATM   15  O35 U5G A 401      10.238 -24.644  21.000  1.00  0.00    -0.278 OA
HETATM   16  C15 U5G A 401      12.290 -27.183  24.161  1.00  0.00     0.015 C
HETATM   17  C16 U5G A 401      13.490 -27.491  23.264  1.00  0.00    -0.026 C
HETATM   18  C17 U5G A 401      14.093 -26.314  22.496  1.00  0.00     0.011 C
HETATM   19  C13 U5G A 401      11.145 -27.068  22.030  1.00  0.00     0.150 C
HETATM   20  C19 U5G A 401      11.496 -25.903  24.120  1.00  0.00     0.098 C
HETATM   21  C14 U5G A 401      12.089 -27.865  22.801  1.00  0.00     0.026 C
BRANCH  19  22
HETATM   22  C12 U5G A 401       9.761 -27.588  21.976  1.00  0.00     0.219 C
HETATM   23  O36 U5G A 401       9.058 -27.593  22.989  1.00  0.00    -0.278 OA
HETATM   24  H11 U5G A 401       9.997 -28.174  19.947  1.00  0.00     0.131 HD
HETATM   25  N11 U5G A 401       9.354 -28.137  20.738  1.00  0.00    -0.251 N
BRANCH  25  26
HETATM   26  C05 U5G A 401       8.011 -28.643  20.620  1.00  0.00     0.099 C
BRANCH  26  27
HETATM   27  C06 U5G A 401       7.155 -27.792  19.694  1.00  0.00     0.025 C
BRANCH  27  28
HETATM   28  C07 U5G A 401       6.751 -26.577  20.579  1.00  0.00    -0.009 C
HETATM   29  C09 U5G A 401       5.205 -25.428  21.437  1.00  0.00     0.001 C
HETATM   30  C10 U5G A 401       5.904 -26.711  21.866  1.00  0.00     0.003 C
HETATM   31  C08 U5G A 401       5.688 -25.718  19.998  1.00  0.00     0.003 C
ENDBRANCH  27  28
ENDBRANCH  26  27
BRANCH  26  32
HETATM   32  C03 U5G A 401       8.115 -30.132  20.331  1.00  0.00     0.213 C
HETATM   33  H04 U5G A 401       9.014 -31.764  20.972  1.00  0.00     0.210 HD
HETATM   34  O04 U5G A 401       8.949 -30.834  21.153  1.00  0.00    -0.381 OA
BRANCH  32  35
HETATM   35  C02 U5G A 401       6.835 -30.878  20.258  1.00  0.00     0.228 C
HETATM   36  N37 U5G A 401       6.581 -31.698  21.418  1.00  0.00    -0.270 N
HETATM   37 2H37 U5G A 401       6.626 -31.141  22.271  1.00  0.00     0.127 HD
HETATM   38 1H37 U5G A 401       5.701 -32.211  21.368  1.00  0.00     0.127 HD
HETATM   39  O01 U5G A 401       5.979 -30.786  19.464  1.00  0.00    -0.277 OA
ENDBRANCH  32  35
ENDBRANCH  26  32
ENDBRANCH  25  26
ENDBRANCH  19  22
ENDBRANCH  11  12
BRANCH  11  40
HETATM   40  C23 U5G A 401       8.983 -23.048  23.335  1.00  0.00    -0.014 C
HETATM   41  C24 U5G A 401       8.308 -24.272  23.993  1.00  0.00     0.012 C
HETATM   42  C25 U5G A 401       8.159 -22.694  22.069  1.00  0.00     0.012 C
HETATM   43  C26 U5G A 401       8.937 -21.857  24.333  1.00  0.00     0.012 C
ENDBRANCH  11  40
ENDBRANCH   9  11
ENDBRANCH   1   9
TORSDOF 11
