REMARK  5 active torsions:
REMARK  status: ('A' for Active; 'I' for Inactive)
REMARK    1  A    between atoms: C2_4  and  C1_6
REMARK    2  A    between atoms: C1_6  and  N_7
REMARK    3  A    between atoms: C_8  and  C5_11
REMARK    4  A    between atoms: C10_16  and  O1_17
REMARK    5  A    between atoms: O1_17  and  C11_18
ROOT
HETATM    1  N1  UHM A 405      12.747  -1.355  22.687  1.00  0.00    -0.218 NA
HETATM    2  S   UHM A 405      12.551  -1.336  24.346  1.00  0.00     0.003 SA
HETATM    3  C4  UHM A 405      10.899  -1.665  24.279  1.00  0.00     0.071 A
HETATM    4  C2  UHM A 405      10.498  -1.791  22.982  1.00  0.00    -0.007 A
HETATM    5  C3  UHM A 405      11.581  -1.601  22.106  1.00  0.00     0.125 A
ENDROOT
BRANCH   4   6
HETATM    6  C1  UHM A 405       9.125  -2.131  22.509  1.00  0.00     0.126 C
BRANCH   6   7
HETATM    7  N   UHM A 405       8.668  -1.252  21.454  1.00  0.00    -0.250 N
HETATM    8  C   UHM A 405       7.427  -1.339  20.967  1.00  0.00     0.234 C
HETATM    9  H   UHM A 405       9.306  -0.552  21.075  1.00  0.00     0.131 HD
HETATM   10  O   UHM A 405       6.698  -2.301  21.197  1.00  0.00    -0.274 OA
BRANCH   8  11
HETATM   11  C5  UHM A 405       6.934  -0.198  20.128  1.00  0.00     0.063 A
HETATM   12  C6  UHM A 405       6.946  -0.418  18.748  1.00  0.00     0.015 A
HETATM   13  C7  UHM A 405       6.261   0.433  17.896  1.00  0.00     0.001 A
HETATM   14  C8  UHM A 405       5.548   1.498  18.402  1.00  0.00     0.003 A
HETATM   15  C9  UHM A 405       5.567   1.773  19.761  1.00  0.00     0.033 A
HETATM   16  C10 UHM A 405       6.298   0.954  20.610  1.00  0.00     0.089 A
BRANCH  16  17
HETATM   17  O1  UHM A 405       6.530   1.283  21.924  1.00  0.00    -0.329 OA
BRANCH  17  18
HETATM   18  C11 UHM A 405       7.827   1.801  22.273  1.00  0.00     0.285 C
HETATM   19  C12 UHM A 405       7.901   3.266  22.415  1.00  0.00     0.091 C
HETATM   20  N2  UHM A 405       8.008   4.398  22.524  1.00  0.00    -0.194 NA
ENDBRANCH  17  18
ENDBRANCH  16  17
ENDBRANCH   8  11
ENDBRANCH   6   7
ENDBRANCH   4   6
TORSDOF 5
