REMARK 10 active torsions:
REMARK  status: ('A' for Active; 'I' for Inactive)
REMARK    1  A    between atoms: O2_2  and  C3_3
REMARK    2  A    between atoms: C9_10  and  C12_13
REMARK    3  A    between atoms: N14_15  and  C15_17
REMARK    4  A    between atoms: C15_17  and  C21_18
REMARK    5  A    between atoms: C15_17  and  C17_36
REMARK    6  A    between atoms: N23_20  and  C24_22
REMARK    7  A    between atoms: C24_22  and  C34_23
REMARK    8  A    between atoms: C24_22  and  C26_29
REMARK    9  A    between atoms: C34_23  and  C36_26
REMARK   10  A    between atoms: C26_29  and  C27_30
ROOT
HETATM    1  C1  V2M A9001      13.221  21.829  27.442  1.00  0.00     0.202 C
HETATM    2  O2  V2M A9001      12.893  20.476  27.103  1.00  0.00    -0.347 OA
ENDROOT
BRANCH   2   3
HETATM    3  C3  V2M A9001      12.068  20.266  26.031  1.00  0.00     0.084 A
HETATM    4  C11 V2M A9001      11.713  18.926  25.807  1.00  0.00     0.025 A
HETATM    5  C7  V2M A9001      10.861  18.628  24.730  1.00  0.00     0.030 A
HETATM    6  N8  V2M A9001      10.614  17.267  24.731  1.00  0.00    -0.254 NA
HETATM    7  C6  V2M A9001      10.394  19.614  23.871  1.00  0.00     0.020 A
HETATM    8  C5  V2M A9001      10.759  20.932  24.119  1.00  0.00     0.004 A
HETATM    9  H8  V2M A9001      10.036  16.766  24.056  1.00  0.00     0.134 HD
HETATM   10  C9  V2M A9001      11.282  16.701  25.800  1.00  0.00     0.080 A
HETATM   11  C10 V2M A9001      11.972  17.682  26.478  1.00  0.00     0.036 A
HETATM   12  C4  V2M A9001      11.607  21.255  25.173  1.00  0.00     0.033 A
BRANCH  10  13
HETATM   13  C12 V2M A9001      11.188  15.243  26.005  1.00  0.00     0.243 C
HETATM   14  O13 V2M A9001      10.520  14.541  25.245  1.00  0.00    -0.273 OA
HETATM   15  N14 V2M A9001      11.849  14.749  27.055  1.00  0.00    -0.242 N
HETATM   16  H14 V2M A9001      12.368  15.385  27.660  1.00  0.00     0.131 HD
BRANCH  15  17
HETATM   17  C15 V2M A9001      11.846  13.328  27.356  1.00  0.00     0.144 C
BRANCH  17  18
HETATM   18  C21 V2M A9001      10.464  12.923  27.862  1.00  0.00     0.218 C
HETATM   19  H23 V2M A9001      10.472  11.303  26.627  1.00  0.00     0.131 HD
HETATM   20  N23 V2M A9001       9.973  11.777  27.380  1.00  0.00    -0.251 N
HETATM   21  O22 V2M A9001       9.853  13.638  28.658  1.00  0.00    -0.278 OA
BRANCH  20  22
HETATM   22  C24 V2M A9001       8.744  11.183  27.899  1.00  0.00     0.092 C
BRANCH  22  23
HETATM   23  C34 V2M A9001       9.052   9.947  28.753  1.00  0.00     0.157 C
HETATM   24  H35 V2M A9001       8.034   8.581  29.762  1.00  0.00     0.210 HD
HETATM   25  O35 V2M A9001       7.843   9.347  29.233  1.00  0.00    -0.388 OA
BRANCH  23  26
HETATM   26  C36 V2M A9001       9.926  10.324  29.950  1.00  0.00     0.188 C
HETATM   27  O37 V2M A9001      10.212   9.226  30.808  1.00  0.00    -0.392 OA
HETATM   28  H37 V2M A9001      10.755   9.460  31.552  1.00  0.00     0.210 HD
ENDBRANCH  23  26
ENDBRANCH  22  23
BRANCH  22  29
HETATM   29  C26 V2M A9001       7.751  10.926  26.763  1.00  0.00     0.034 C
BRANCH  29  30
HETATM   30  C27 V2M A9001       7.146  12.253  26.273  1.00  0.00     0.082 C
HETATM   31  C30 V2M A9001       5.209  13.683  26.504  1.00  0.00     0.146 C
HETATM   32  C29 V2M A9001       6.299  13.013  27.323  1.00  0.00     0.036 C
HETATM   33  N31 V2M A9001       5.103  12.824  25.334  1.00  0.00    -0.250 NA
HETATM   34  C32 V2M A9001       6.179  12.062  25.119  1.00  0.00     0.245 C
HETATM   35  O33 V2M A9001       6.367  11.354  24.137  1.00  0.00    -0.271 OA
ENDBRANCH  29  30
ENDBRANCH  22  29
ENDBRANCH  20  22
ENDBRANCH  17  18
BRANCH  17  36
HETATM   36  C17 V2M A9001      12.914  12.990  28.402  1.00  0.00     0.031 C
HETATM   37  C19 V2M A9001      14.696  12.037  26.929  1.00  0.00     0.007 C
HETATM   38  C20 V2M A9001      15.325  13.117  29.090  1.00  0.00     0.007 C
HETATM   39  C18 V2M A9001      14.353  13.133  27.918  1.00  0.00    -0.015 C
ENDBRANCH  17  36
ENDBRANCH  15  17
ENDBRANCH  10  13
ENDBRANCH   2   3
TORSDOF 10
