REMARK  1 active torsions:
REMARK  status: ('A' for Active; 'I' for Inactive)
REMARK    1  A    between atoms: C7_2  and  C5_10
ROOT
HETATM    1  N1  T2V A 404      10.068  -2.377  23.715  1.00  0.00    -0.244 NA
HETATM    2  C7  T2V A 404       9.703  -3.600  23.933  1.00  0.00     0.084 A
HETATM    3  C8  T2V A 404      11.286  -2.109  24.336  1.00  0.00     0.078 A
HETATM    4  S   T2V A 404      10.757  -4.546  24.957  1.00  0.00    -0.072 SA
HETATM    5  C9  T2V A 404      11.977  -0.903  24.287  1.00  0.00     0.029 A
HETATM    6  C13 T2V A 404      11.821  -3.180  25.061  1.00  0.00     0.039 A
HETATM    7  C12 T2V A 404      13.035  -3.074  25.736  1.00  0.00     0.017 A
HETATM    8  C10 T2V A 404      13.179  -0.806  24.954  1.00  0.00     0.002 A
HETATM    9  C11 T2V A 404      13.706  -1.875  25.666  1.00  0.00     0.001 A
ENDROOT
BRANCH   2  10
HETATM   10  C5  T2V A 404       8.432  -4.185  23.359  1.00  0.00     0.059 C
HETATM   11  C1  T2V A 404       6.683  -4.077  20.143  1.00  0.00     0.200 C
HETATM   12  O   T2V A 404       5.649  -4.523  19.664  1.00  0.00    -0.280 OA
HETATM   13  C3  T2V A 404       7.193  -6.350  23.002  1.00  0.00     0.016 C
HETATM   14  N   T2V A 404       7.179  -4.562  21.299  1.00  0.00    -0.244 N
HETATM   15  C   T2V A 404       7.438  -2.988  19.412  1.00  0.00     0.105 C
HETATM   16  C6  T2V A 404       8.509  -4.318  21.849  1.00  0.00     0.102 C
HETATM   17  C4  T2V A 404       8.057  -5.539  23.971  1.00  0.00     0.013 C
HETATM   18  C2  T2V A 404       6.349  -5.430  22.143  1.00  0.00     0.092 C
ENDBRANCH   2  10
TORSDOF 1
