REMARK  7 active torsions:
REMARK  status: ('A' for Active; 'I' for Inactive)
REMARK    1  A    between atoms: C21_1  and  C22_16
REMARK    2  A    between atoms: C21_1  and  O20_22
REMARK    3  A    between atoms: O20_22  and  C19_23
REMARK    4  A    between atoms: N_9  and  CA_28
REMARK    5  A    between atoms: CA_28  and  CB_29
REMARK    6  A    between atoms: CA_28  and  C_36
REMARK    7  A    between atoms: CB_29  and  CG_30
ROOT
HETATM    1  C21 P6S C   1       9.819   4.147  22.838  1.00  0.00     0.207 C
ATOM      2  CE1 PHE C   2      14.320  -2.235  25.245  1.00  0.00     0.000 C
ATOM      3  CD2 PHE C   2      13.588  -0.742  23.022  1.00  0.00     0.000 C
ATOM      4  CA  PHE C   2      10.745  -0.461  22.348  1.00  0.00     0.000 C
ATOM      5  CE2 PHE C   2      14.938  -0.745  23.498  1.00  0.00     0.000 C
ATOM      6  CD1 PHE C   2      13.038  -2.245  24.735  1.00  0.00     0.000 C
ATOM      7  C   PHE C   2       9.313  -0.723  21.939  1.00  0.00     0.072 C
ATOM      8  CZ  PHE C   2      15.295  -1.538  24.611  1.00  0.00     0.000 C
HETATM    9  N   ELL C   3       9.081  -1.220  20.703  1.00  0.00    -0.295 NA
ATOM     10  CG  PHE C   2      12.638  -1.529  23.626  1.00  0.00     0.000 C
ATOM     11  CB  PHE C   2      11.223  -1.595  23.189  1.00  0.00     0.000 C
ATOM     12  O   PHE C   2       8.382  -0.469  22.686  1.00  0.00    -0.410 OA
HETATM   13  H   ELL C   3       9.885  -1.315  20.083  1.00  0.00     0.127 HD
ATOM     14  H2  PHE C   2       8.136   0.449  22.686  1.00  0.00     0.205 HD
ATOM     15  H1  PHE C   2       9.332  -0.469  22.686  1.00  0.00     0.205 HD
ENDROOT
BRANCH   1  16
HETATM   16  C22 P6S C   1       8.327   4.197  22.822  1.00  0.00    -0.021 A
HETATM   17  C25 P6S C   1       5.461   4.325  22.808  1.00  0.00     0.000 A
HETATM   18  C23 P6S C   1       7.506   3.241  23.503  1.00  0.00     0.006 A
HETATM   19  C27 P6S C   1       7.643   5.218  22.153  1.00  0.00     0.006 A
HETATM   20  C24 P6S C   1       6.086   3.287  23.483  1.00  0.00     0.000 A
HETATM   21  C26 P6S C   1       6.237   5.258  22.122  1.00  0.00     0.000 A
ENDBRANCH   1  16
BRANCH   1  22
HETATM   22  O20 P6S C   1      10.332   2.934  23.266  1.00  0.00    -0.298 OA
BRANCH  22  23
HETATM   23  C19 P6S C   1      10.369   1.871  22.461  1.00  0.00     0.336 C
HETATM   24  O28 P6S C   1      10.001   2.014  21.306  1.00  0.00    -0.246 OA
ATOM     25  N   PHE C   2      10.805   0.768  23.046  1.00  0.00    -0.247 N
ATOM     26  H2  PHE C   2      11.088   0.733  24.025  1.00  0.00     0.129 HD
ATOM     27  H1  PHE C   2      10.833  -0.045  22.430  1.00  0.00     0.129 HD
ENDBRANCH  22  23
ENDBRANCH   1  22
BRANCH   9  28
HETATM   28  CA  ELL C   3       7.789  -1.631  20.179  1.00  0.00     0.087 C
BRANCH  28  29
HETATM   29  CB  ELL C   3       7.326  -0.748  18.980  1.00  0.00     0.057 C
BRANCH  29  30
HETATM   30  CG  ELL C   3       7.107   0.704  19.385  1.00  0.00     0.003 C
HETATM   31  NAH ELL C   3       5.715   2.372  18.523  1.00  0.00    -0.222 NA
HETATM   32  CAE ELL C   3       5.292   2.175  19.934  1.00  0.00     0.092 C
HETATM   33  CD2 ELL C   3       6.759   1.588  18.149  1.00  0.00     0.270 C
HETATM   34  OAD ELL C   3       7.304   1.582  17.098  1.00  0.00    -0.266 OA
HETATM   35  CD1 ELL C   3       6.011   0.980  20.479  1.00  0.00     0.083 C
ENDBRANCH  29  30
ENDBRANCH  28  29
BRANCH  28  36
HETATM   36  C   ELL C   3       7.793  -3.125  19.710  1.00  0.00     0.175 C
HETATM   37  H   ELL C   3       6.623  -4.551  19.189  1.00  0.00     0.209 HD
HETATM   38  O   ELL C   3       6.621  -3.645  19.474  1.00  0.00    -0.393 OA
ENDBRANCH  28  36
ENDBRANCH   9  28
TORSDOF 7
