REMARK 10 active torsions:
REMARK  status: ('A' for Active; 'I' for Inactive)
REMARK    1  A    between atoms: C7_1  and  O8_2
REMARK    2  A    between atoms: C7_1  and  C1_27
REMARK    3  A    between atoms: O8_2  and  C9_3
REMARK    4  A    between atoms: N11_6  and  C12_7
REMARK    5  A    between atoms: C12_7  and  C13_8
REMARK    6  A    between atoms: C12_7  and  C17_12
REMARK    7  A    between atoms: N19_14  and  C20_16
REMARK    8  A    between atoms: C20_16  and  C21_17
REMARK    9  A    between atoms: C20_16  and  C24_20
REMARK   10  A    between atoms: C24_20  and  C25_21
ROOT
HETATM    1  C7  K36 A 401     -14.175   3.262  -1.218  1.00  0.00     0.207 C
ENDROOT
BRANCH   1   2
HETATM    2  O8  K36 A 401     -15.015   2.897  -0.096  1.00  0.00    -0.298 OA
BRANCH   2   3
HETATM    3  C9  K36 A 401     -14.801   1.680   0.429  1.00  0.00     0.339 C
HETATM    4  O10 K36 A 401     -14.169   1.480   1.443  1.00  0.00    -0.245 OA
HETATM    5  H11 K36 A 401     -15.796   0.958  -1.217  1.00  0.00     0.133 HD
HETATM    6  N11 K36 A 401     -15.398   0.726  -0.307  1.00  0.00    -0.222 N
BRANCH   6   7
HETATM    7  C12 K36 A 401     -15.476  -0.634   0.195  1.00  0.00     0.146 C
BRANCH   7   8
HETATM    8  C13 K36 A 401     -16.305  -1.501  -0.748  1.00  0.00     0.031 C
HETATM    9  C15 K36 A 401     -18.524  -2.093  -1.728  1.00  0.00     0.007 C
HETATM   10  C14 K36 A 401     -17.776  -1.102  -0.865  1.00  0.00    -0.015 C
HETATM   11  C16 K36 A 401     -18.438  -0.984   0.498  1.00  0.00     0.007 C
ENDBRANCH   7   8
BRANCH   7  12
HETATM   12  C17 K36 A 401     -14.103  -1.267   0.413  1.00  0.00     0.218 C
HETATM   13  H19 K36 A 401     -14.443  -1.280   2.407  1.00  0.00     0.131 HD
HETATM   14  N19 K36 A 401     -13.764  -1.515   1.683  1.00  0.00    -0.252 N
HETATM   15  O18 K36 A 401     -13.388  -1.541  -0.551  1.00  0.00    -0.278 OA
BRANCH  14  16
HETATM   16  C20 K36 A 401     -12.490  -2.099   2.112  1.00  0.00     0.087 C
BRANCH  16  17
HETATM   17  C21 K36 A 401     -12.693  -3.590   2.423  1.00  0.00     0.174 C
HETATM   18  H22 K36 A 401     -11.558  -5.180   2.690  1.00  0.00     0.209 HD
HETATM   19  O22 K36 A 401     -11.432  -4.258   2.498  1.00  0.00    -0.393 OA
ENDBRANCH  16  17
BRANCH  16  20
HETATM   20  C24 K36 A 401     -11.931  -1.290   3.288  1.00  0.00     0.034 C
BRANCH  20  21
HETATM   21  C25 K36 A 401     -11.582   0.138   2.883  1.00  0.00     0.082 C
HETATM   22  C26 K36 A 401     -10.399   0.309   1.938  1.00  0.00     0.036 C
HETATM   23  C27 K36 A 401      -9.800   1.656   2.320  1.00  0.00     0.146 C
HETATM   24  N28 K36 A 401     -10.229   1.826   3.705  1.00  0.00    -0.250 NA
HETATM   25  C29 K36 A 401     -11.230   1.027   4.061  1.00  0.00     0.245 C
HETATM   26  O30 K36 A 401     -11.801   1.021   5.169  1.00  0.00    -0.271 OA
ENDBRANCH  20  21
ENDBRANCH  16  20
ENDBRANCH  14  16
ENDBRANCH   7  12
ENDBRANCH   6   7
ENDBRANCH   2   3
ENDBRANCH   1   2
BRANCH   1  27
HETATM   27  C1  K36 A 401     -12.774   3.589  -0.784  1.00  0.00    -0.021 A
HETATM   28  C3  K36 A 401     -11.224   4.946   0.461  1.00  0.00     0.000 A
HETATM   29  C6  K36 A 401     -11.700   2.856  -1.267  1.00  0.00     0.006 A
HETATM   30  C4  K36 A 401     -10.166   4.213  -0.029  1.00  0.00     0.000 A
HETATM   31  C2  K36 A 401     -12.524   4.643   0.080  1.00  0.00     0.006 A
HETATM   32  C5  K36 A 401     -10.401   3.166  -0.888  1.00  0.00     0.000 A
ENDBRANCH   1  27
TORSDOF 10
