REMARK  3 active torsions:
REMARK  status: ('A' for Active; 'I' for Inactive)
REMARK    1  A    between atoms: C6_3  and  N_7
REMARK    2  A    between atoms: C5_9  and  C4_11
REMARK    3  A    between atoms: C4_11  and  C3_12
ROOT
HETATM    1  N1  UGV A1001       6.643   0.857  17.395  1.00  0.00    -0.262 NA
HETATM    2  C10 UGV A1001       7.230   0.197  18.400  1.00  0.00     0.130 A
HETATM    3  C6  UGV A1001       6.651   0.039  19.658  1.00  0.00     0.040 A
HETATM    4  C7  UGV A1001       5.403   0.616  19.873  1.00  0.00     0.023 A
HETATM    5  C9  UGV A1001       5.442   1.399  17.629  1.00  0.00     0.111 A
HETATM    6  C8  UGV A1001       4.790   1.313  18.845  1.00  0.00     0.021 A
ENDROOT
BRANCH   3   7
HETATM    7  N   UGV A1001       7.299  -0.699  20.671  1.00  0.00    -0.227 N
HETATM    8  H   UGV A1001       6.845  -1.565  20.960  1.00  0.00     0.136 HD
HETATM    9  C5  UGV A1001       8.452  -0.389  21.302  1.00  0.00     0.210 C
HETATM   10  O   UGV A1001       9.132   0.602  21.037  1.00  0.00    -0.279 OA
BRANCH   9  11
HETATM   11  C4  UGV A1001       8.856  -1.352  22.397  1.00  0.00     0.134 C
BRANCH  11  12
HETATM   12  C3  UGV A1001      10.040  -0.703  23.049  1.00  0.00    -0.000 A
HETATM   13  C2  UGV A1001      10.046   0.035  24.213  1.00  0.00     0.013 A
HETATM   14  C1  UGV A1001      11.306   0.556  24.540  1.00  0.00     0.028 A
HETATM   15  C   UGV A1001      12.241   0.199  23.632  1.00  0.00     0.078 A
HETATM   16 CL   UGV A1001      13.907   0.605  23.658  1.00  0.00    -0.076 Cl
HETATM   17  S   UGV A1001      11.623  -0.771  22.359  1.00  0.00    -0.081 SA
ENDBRANCH  11  12
ENDBRANCH   9  11
ENDBRANCH   3   7
TORSDOF 3
