MODEL        1
REMARK THIS MODEL IS IDENTICAL TO THE INPUT LIGAND AND NOT FROM DOCKING
REMARK 921   NORMALIZED FREE ENERGY PREDICTED BY IDOCK:   -8.40 KCAL/MOL
REMARK 922        TOTAL FREE ENERGY PREDICTED BY IDOCK:  -13.02 KCAL/MOL
REMARK 923 INTER-LIGAND FREE ENERGY PREDICTED BY IDOCK:  -12.32 KCAL/MOL
REMARK 924 INTRA-LIGAND FREE ENERGY PREDICTED BY IDOCK:   -0.70 KCAL/MOL
REMARK 927      BINDING AFFINITY PREDICTED BY RF-SCORE:    0.00 PKD
ROOT
HETATM    1  C10 X7V A 401       5.552   0.366  19.697  1.00  0.00    -0.377 A  
HETATM    2  C13 X7V A 401       4.874   0.901  17.143  1.00  0.00    -0.052 A  
HETATM    3  C11 X7V A 401       6.325  -0.109  18.683  1.00  0.00    -0.496 A  
HETATM    4  C15 X7V A 401       4.403   1.168  19.439  1.00  0.00    -0.524 A  
HETATM    5  C14 X7V A 401       4.074   1.424  18.107  1.00  0.00    -0.254 A  
HETATM    6  N12 X7V A 401       5.972   0.169  17.419  1.00  0.00    -0.738 NA 
ENDROOT
BRANCH   1   7
HETATM    7  C09 X7V A 401       5.937   0.107  21.156  1.00  0.00    -0.297 C  
BRANCH   7   8
HETATM    8  N08 X7V A 401       6.301  -1.263  21.438  1.00  0.00    -0.300 N  
HETATM    9  O01 X7V A 401       4.419  -2.283  20.487  1.00  0.00     0.185 OA 
HETATM   10  C02 X7V A 401       5.453  -2.442  21.073  1.00  0.00    -0.268 C  
BRANCH   8  11
HETATM   11  C27 X7V A 401       7.559  -1.539  22.183  1.00  0.00    -0.248 A  
HETATM   12  C38 X7V A 401       8.711  -1.937  21.473  1.00  0.00    -0.227 A  
HETATM   13  C37 X7V A 401       9.860  -2.177  22.150  1.00  0.00    -0.019 A  
HETATM   14  C28 X7V A 401       7.565  -1.387  23.568  1.00  0.00    -0.186 A  
HETATM   15  C30 X7V A 401       9.890  -2.027  23.553  1.00  0.00    -0.360 A  
HETATM   16  C29 X7V A 401       8.739  -1.649  24.255  1.00  0.00    -0.238 A  
BRANCH  15  17
HETATM   17  C31 X7V A 401      11.150  -2.346  24.318  1.00  0.00    -0.455 A  
HETATM   18  C36 X7V A 401      11.001  -3.026  25.577  1.00  0.00    -0.472 A  
HETATM   19  C35 X7V A 401      12.108  -3.370  26.311  1.00  0.00    -0.303 A  
HETATM   20  C34 X7V A 401      13.375  -3.067  25.809  1.00  0.00    -0.609 A  
HETATM   21  C33 X7V A 401      13.521  -2.401  24.555  1.00  0.00    -0.345 A  
HETATM   22  C32 X7V A 401      12.411  -2.055  23.809  1.00  0.00    -0.497 A  
ENDBRANCH  15  17
ENDBRANCH   8  11
BRANCH  10  23
HETATM   23  C03 X7V A 401       5.856  -3.917  21.453  1.00  0.00    -0.120 A  
HETATM   24  C06 X7V A 401       6.064  -6.110  21.390  1.00  0.00    -0.341 A  
HETATM   25  C04 X7V A 401       6.489  -4.333  22.647  1.00  0.00    -0.327 A  
HETATM   26  C05 X7V A 401       6.633  -5.695  22.591  1.00  0.00    -0.529 A  
HETATM   27  O07 X7V A 401       5.598  -5.015  20.733  1.00  0.00    -0.354 OA 
ENDBRANCH  10  23
ENDBRANCH   7   8
BRANCH   7  28
HETATM   28  C16 X7V A 401       7.115   1.083  21.348  1.00  0.00    -0.252 C  
HETATM   29  N17 X7V A 401       6.905   2.328  22.168  1.00  0.00    -0.179 N  
HETATM   30  H17 X7V A 401       6.016   2.529  22.625  1.00  0.00     0.000 HD 
HETATM   31  O26 X7V A 401       8.182   0.866  20.821  1.00  0.00    -0.539 OA 
BRANCH  29  32
HETATM   32  C18 X7V A 401       8.067   3.245  22.272  1.00  0.00    -0.101 C  
HETATM   33  C19 X7V A 401       7.700   4.564  22.880  1.00  0.00    -0.229 C  
BRANCH  32  34
HETATM   34  C20 X7V A 401       9.243   2.551  23.039  1.00  0.00    -0.276 A  
HETATM   35  C24 X7V A 401      10.090   1.246  24.909  1.00  0.00    -0.409 A  
HETATM   36  C22 X7V A 401      11.632   2.014  23.189  1.00  0.00    -0.543 A  
HETATM   37  C25 X7V A 401       9.014   1.872  24.217  1.00  0.00    -0.246 A  
HETATM   38  C21 X7V A 401      10.559   2.624  22.506  1.00  0.00    -0.384 A  
HETATM   39  C23 X7V A 401      11.387   1.323  24.380  1.00  0.00    -0.413 A  
ENDBRANCH  32  34
ENDBRANCH  29  32
ENDBRANCH   7  28
ENDBRANCH   1   7
TORSDOF 8
ENDMDL
