MODEL        1
REMARK THIS MODEL IS IDENTICAL TO THE INPUT LIGAND AND NOT FROM DOCKING
REMARK 921   NORMALIZED FREE ENERGY PREDICTED BY IDOCK:   -5.75 KCAL/MOL
REMARK 922        TOTAL FREE ENERGY PREDICTED BY IDOCK:   -6.50 KCAL/MOL
REMARK 923 INTER-LIGAND FREE ENERGY PREDICTED BY IDOCK:   -6.76 KCAL/MOL
REMARK 924 INTRA-LIGAND FREE ENERGY PREDICTED BY IDOCK:    0.26 KCAL/MOL
REMARK 927      BINDING AFFINITY PREDICTED BY RF-SCORE:    0.00 PKD
ROOT
HETATM    1  N1  GWS A1001       7.534   0.344  17.581  1.00  0.00    -0.502 NA 
HETATM    2  C12 GWS A1001       8.096  -0.072  18.686  1.00  0.00    -0.371 A  
HETATM    3  C8  GWS A1001       7.431   0.116  19.883  1.00  0.00    -0.345 A  
HETATM    4  C9  GWS A1001       6.197   0.751  19.962  1.00  0.00    -0.472 A  
HETATM    5  C11 GWS A1001       6.354   0.944  17.579  1.00  0.00    -0.487 A  
HETATM    6  C10 GWS A1001       5.648   1.168  18.750  1.00  0.00    -0.548 A  
ENDROOT
BRANCH   3   7
HETATM    7  N   GWS A1001       8.027  -0.321  21.104  1.00  0.00    -0.295 N  
HETATM    8  C   GWS A1001       9.318   0.179  21.452  1.00  0.00    -0.304 C  
HETATM    9  H   GWS A1001       7.541  -0.977  21.715  1.00  0.00     0.000 HD 
HETATM   10  O   GWS A1001       9.871   0.915  20.701  1.00  0.00    -0.373 OA 
BRANCH   8  11
HETATM   11  C1  GWS A1001       9.928  -0.275  22.773  1.00  0.00    -0.258 C  
BRANCH  11  12
HETATM   12  C2  GWS A1001      11.452  -0.275  22.712  1.00  0.00    -0.319 C  
HETATM   13  C7  GWS A1001      11.947  -1.343  21.740  1.00  0.00    -0.534 C  
HETATM   14  C6  GWS A1001      13.457  -1.525  21.803  1.00  0.00    -0.569 C  
HETATM   15  C5  GWS A1001      13.976  -1.682  23.221  1.00  0.00    -0.644 C  
HETATM   16  C4  GWS A1001      13.488  -0.514  24.062  1.00  0.00    -0.377 C  
HETATM   17  C3  GWS A1001      11.973  -0.534  24.118  1.00  0.00    -0.358 C  
ENDBRANCH  11  12
ENDBRANCH   8  11
ENDBRANCH   3   7
TORSDOF 3
ENDMDL
