REMARK  1 active torsions:
REMARK  status: ('A' for Active; 'I' for Inactive)
REMARK    1  A    between atoms: C11_10  and  C14_18
ROOT
HETATM    1  C1  MYC A 407      22.639   3.013 -32.160  1.00  0.00     0.066 A
HETATM    2  C2  MYC A 407      21.747   3.515 -31.222  1.00  0.00     0.088 A
HETATM    3  O30 MYC A 407      20.584   4.092 -31.639  1.00  0.00    -0.359 OA
HETATM    4  C3  MYC A 407      22.044   3.431 -29.862  1.00  0.00     0.085 A
HETATM    5  C4  MYC A 407      23.241   2.839 -29.446  1.00  0.00     0.099 A
HETATM    6  H30 MYC A 407      19.974   4.436 -30.997  1.00  0.00     0.217 HD
HETATM    7  C5  MYC A 407      24.128   2.341 -30.391  1.00  0.00     0.066 A
HETATM    8  O12 MYC A 407      23.560   2.743 -28.115  1.00  0.00    -0.305 OA
HETATM    9  C6  MYC A 407      23.827   2.430 -31.746  1.00  0.00     0.078 A
HETATM   10  C11 MYC A 407      22.701   3.189 -27.138  1.00  0.00     0.124 C
HETATM   11  C10 MYC A 407      21.424   3.844 -27.507  1.00  0.00     0.152 C
HETATM   12  O29 MYC A 407      24.692   1.950 -32.676  1.00  0.00    -0.360 OA
HETATM   13  H27 MYC A 407      20.843   4.224 -25.592  1.00  0.00     0.218 HD
HETATM   14  C9  MYC A 407      21.083   3.959 -28.848  1.00  0.00     0.223 C
HETATM   15  O27 MYC A 407      20.610   4.303 -26.509  1.00  0.00    -0.354 OA
HETATM   16  H29 MYC A 407      25.506   1.551 -32.392  1.00  0.00     0.217 HD
HETATM   17  O13 MYC A 407      19.997   4.493 -29.206  1.00  0.00    -0.284 OA
ENDROOT
BRANCH  10  18
HETATM   18  C14 MYC A 407      23.077   3.142 -25.700  1.00  0.00     0.013 A
HETATM   19  C15 MYC A 407      24.326   3.701 -25.445  1.00  0.00     0.046 A
HETATM   20  C16 MYC A 407      24.820   3.788 -24.153  1.00  0.00     0.105 A
HETATM   21  O25 MYC A 407      26.054   4.317 -23.903  1.00  0.00    -0.357 OA
HETATM   22  C17 MYC A 407      24.059   3.319 -23.114  1.00  0.00     0.132 A
HETATM   23  C18 MYC A 407      22.802   2.771 -23.349  1.00  0.00     0.105 A
HETATM   24  O24 MYC A 407      24.552   3.409 -21.855  1.00  0.00    -0.355 OA
HETATM   25  H25 MYC A 407      26.393   4.377 -23.017  1.00  0.00     0.217 HD
HETATM   26  H24 MYC A 407      25.410   3.783 -21.695  1.00  0.00     0.218 HD
HETATM   27  C19 MYC A 407      22.270   2.675 -24.648  1.00  0.00     0.046 A
HETATM   28  O23 MYC A 407      22.115   2.334 -22.269  1.00  0.00    -0.357 OA
HETATM   29  H23 MYC A 407      22.474   2.399 -21.392  1.00  0.00     0.217 HD
ENDBRANCH  10  18
TORSDOF 1
