REMARK 10 active torsions:
REMARK  status: ('A' for Active; 'I' for Inactive)
REMARK    1  A    between atoms: C02_1  and  C12_4
REMARK    2  A    between atoms: C02_1  and  C03_37
REMARK    3  A    between atoms: C12_4  and  N20_5
REMARK    4  A    between atoms: C12_4  and  C13_30
REMARK    5  A    between atoms: C13_30  and  C14_31
REMARK    6  A    between atoms: C21_6  and  C22_9
REMARK    7  A    between atoms: C22_9  and  C23_10
REMARK    8  A    between atoms: C22_9  and  N27_14
REMARK    9  A    between atoms: C28_15  and  C29_18
REMARK   10  A    between atoms: C32_21  and  O33_28
ROOT
HETATM    1  C02 V7G A 401     -18.304  58.559  -0.502  1.00  0.00     0.187 C
HETATM    2  H01 V7G A 401     -16.535  57.824  -0.218  1.00  0.00     0.210 HD
HETATM    3  O01 V7G A 401     -17.116  57.984  -0.953  1.00  0.00    -0.384 OA
ENDROOT
BRANCH   1   4
HETATM    4  C12 V7G A 401     -17.981  59.827   0.297  1.00  0.00     0.097 C
BRANCH   4   5
HETATM    5  N20 V7G A 401     -19.259  60.458   0.720  1.00  0.00    -0.251 N
HETATM    6  C21 V7G A 401     -19.683  61.660   0.246  1.00  0.00     0.218 C
HETATM    7  H20 V7G A 401     -19.844  59.967   1.396  1.00  0.00     0.131 HD
HETATM    8  O41 V7G A 401     -19.038  62.376  -0.540  1.00  0.00    -0.278 OA
BRANCH   6   9
HETATM    9  C22 V7G A 401     -21.063  62.073   0.728  1.00  0.00     0.144 C
BRANCH   9  10
HETATM   10  C23 V7G A 401     -22.115  61.750  -0.336  1.00  0.00     0.031 C
HETATM   11  C24 V7G A 401     -23.558  61.908   0.156  1.00  0.00    -0.015 C
HETATM   12  C26 V7G A 401     -24.502  61.923  -1.076  1.00  0.00     0.007 C
HETATM   13  C25 V7G A 401     -23.901  60.743   1.105  1.00  0.00     0.007 C
ENDBRANCH   9  10
BRANCH   9  14
HETATM   14  N27 V7G A 401     -21.089  63.515   1.039  1.00  0.00    -0.242 N
HETATM   15  C28 V7G A 401     -20.455  64.031   2.082  1.00  0.00     0.243 C
HETATM   16  H27 V7G A 401     -21.615  64.139   0.427  1.00  0.00     0.131 HD
HETATM   17  O40 V7G A 401     -19.796  63.252   2.845  1.00  0.00    -0.273 OA
BRANCH  15  18
HETATM   18  C29 V7G A 401     -20.541  65.443   2.318  1.00  0.00     0.080 A
HETATM   19  C30 V7G A 401     -21.199  66.452   1.644  1.00  0.00     0.036 A
HETATM   20  C31 V7G A 401     -20.831  67.623   2.291  1.00  0.00     0.025 A
HETATM   21  C32 V7G A 401     -21.140  68.943   2.056  1.00  0.00     0.084 A
HETATM   22  H39 V7G A 401     -19.233  65.456   4.025  1.00  0.00     0.134 HD
HETATM   23  C35 V7G A 401     -20.658  69.946   2.889  1.00  0.00     0.033 A
HETATM   24  C36 V7G A 401     -19.793  69.622   3.970  1.00  0.00     0.004 A
HETATM   25  N39 V7G A 401     -19.812  65.978   3.367  1.00  0.00    -0.254 NA
HETATM   26  C37 V7G A 401     -19.497  68.260   4.212  1.00  0.00     0.020 A
HETATM   27  C38 V7G A 401     -20.005  67.311   3.362  1.00  0.00     0.030 A
BRANCH  21  28
HETATM   28  O33 V7G A 401     -22.000  69.190   1.022  1.00  0.00    -0.347 OA
HETATM   29  C34 V7G A 401     -22.374  70.562   0.679  1.00  0.00     0.202 C
ENDBRANCH  21  28
ENDBRANCH  15  18
ENDBRANCH   9  14
ENDBRANCH   6   9
ENDBRANCH   4   5
BRANCH   4  30
HETATM   30  C13 V7G A 401     -17.016  59.669   1.452  1.00  0.00     0.035 C
BRANCH  30  31
HETATM   31  C14 V7G A 401     -16.546  61.039   1.944  1.00  0.00     0.082 C
HETATM   32  C16 V7G A 401     -14.631  62.556   1.680  1.00  0.00     0.146 C
HETATM   33  O19 V7G A 401     -15.644  60.158   4.065  1.00  0.00    -0.271 OA
HETATM   34  C18 V7G A 401     -15.534  60.914   3.094  1.00  0.00     0.245 C
HETATM   35  C15 V7G A 401     -15.727  61.832   0.843  1.00  0.00     0.036 C
HETATM   36  N17 V7G A 401     -14.439  61.649   2.905  1.00  0.00    -0.250 NA
ENDBRANCH  30  31
ENDBRANCH   4  30
ENDBRANCH   1   4
BRANCH   1  37
HETATM   37  C03 V7G A 401     -19.213  58.809  -1.652  1.00  0.00     0.109 A
HETATM   38  N04 V7G A 401     -18.812  59.561  -2.701  1.00  0.00    -0.241 NA
HETATM   39  S11 V7G A 401     -20.855  58.307  -1.749  1.00  0.00    -0.069 SA
HETATM   40  C09 V7G A 401     -22.132  59.091  -4.115  1.00  0.00     0.017 A
HETATM   41  C05 V7G A 401     -19.818  59.674  -3.645  1.00  0.00     0.079 A
HETATM   42  C08 V7G A 401     -22.016  59.734  -5.350  1.00  0.00     0.001 A
HETATM   43  C06 V7G A 401     -19.724  60.338  -4.859  1.00  0.00     0.029 A
HETATM   44  C07 V7G A 401     -20.833  60.358  -5.750  1.00  0.00     0.002 A
HETATM   45  C10 V7G A 401     -21.009  59.036  -3.269  1.00  0.00     0.039 A
ENDBRANCH   1  37
TORSDOF 10
