REMARK 11 active torsions:
REMARK  status: ('A' for Active; 'I' for Inactive)
REMARK    1  A    between atoms: N_4  and  CA_6
REMARK    2  A    between atoms: CA_6  and  C_7
REMARK    3  A    between atoms: CA_6  and  CB_35
REMARK    4  A    between atoms: N_9  and  CA_11
REMARK    5  A    between atoms: CA_11  and  C_12
REMARK    6  A    between atoms: CA_11  and  CB_31
REMARK    7  A    between atoms: N_15  and  CA_16
REMARK    8  A    between atoms: CA_16  and  CB_19
REMARK    9  A    between atoms: CB_19  and  CG_20
REMARK   10  A    between atoms: CG_20  and  CD_21
REMARK   11  A    between atoms: CD_21  and  NE_22
ROOT
HETATM    1  C   ACE B   1      12.241   4.851  23.129  1.00  0.00     0.198 C
HETATM    2  CH3 ACE B   1      13.272   5.709  22.455  1.00  0.00     0.105 C
HETATM    3  O   ACE B   1      12.173   4.755  24.352  1.00  0.00    -0.280 OA
ATOM      4  N   LEU B   2      11.416   4.201  22.314  1.00  0.00    -0.247 N
ATOM      5  H   LEU B   2      11.530   4.319  21.307  1.00  0.00     0.131 HD
ENDROOT
BRANCH   4   6
ATOM      6  CA  LEU B   2      10.354   3.326  22.800  1.00  0.00     0.144 C
BRANCH   6   7
ATOM      7  C   LEU B   2      10.359   1.985  22.081  1.00  0.00     0.219 C
ATOM      8  H   LEU B   3      10.940   1.040  23.786  1.00  0.00     0.131 HD
ATOM      9  N   LEU B   3      10.696   0.921  22.803  1.00  0.00    -0.246 N
ATOM     10  O   LEU B   2      10.045   1.915  20.896  1.00  0.00    -0.278 OA
BRANCH   9  11
ATOM     11  CA  LEU B   3      10.724  -0.412  22.216  1.00  0.00     0.144 C
BRANCH  11  12
ATOM     12  C   LEU B   3       9.306  -0.911  21.974  1.00  0.00     0.219 C
HETATM   13  H   AR7 B   4       9.805  -1.415  20.072  1.00  0.00     0.131 HD
ATOM     14  O   LEU B   3       8.459  -0.858  22.865  1.00  0.00    -0.278 OA
HETATM   15  N   AR7 B   4       9.056  -1.400  20.764  1.00  0.00    -0.247 N
BRANCH  15  16
HETATM   16  CA  AR7 B   4       7.720  -1.924  20.391  1.00  0.00     0.124 C
HETATM   17  C   AR7 B   4       7.841  -3.369  19.895  1.00  0.00     0.242 C
HETATM   18  O   AR7 B   4       7.977  -4.253  20.763  1.00  0.00    -0.299 OA
BRANCH  16  19
HETATM   19  CB  AR7 B   4       7.078  -1.009  19.344  1.00  0.00     0.030 C
BRANCH  19  20
HETATM   20  CG  AR7 B   4       7.244   0.479  19.625  1.00  0.00     0.044 C
BRANCH  20  21
HETATM   21  CD  AR7 B   4       6.034   1.089  20.308  1.00  0.00     0.247 C
BRANCH  21  22
HETATM   22  NE  AR7 B   4       5.785   0.562  21.643  1.00  0.00    -0.445 NA
HETATM   23  CZ  AR7 B   4       4.865   1.038  22.474  1.00  0.00     0.506 C
HETATM   24  HE  AR7 B   4       6.354  -0.223  21.960  1.00  0.00     0.315 HD
HETATM   25  NH1 AR7 B   4       3.888   1.797  22.007  1.00  0.00    -0.457 NA
HETATM   26  NH2 AR7 B   4       4.849   0.651  23.737  1.00  0.00    -0.457 NA
HETATM   27 1HH1 AR7 B   4       3.181   2.163  22.645  1.00  0.00     0.311 HD
HETATM   28 2HH1 AR7 B   4       3.841   2.016  21.012  1.00  0.00     0.311 HD
HETATM   29 1HH2 AR7 B   4       4.142   1.017  24.375  1.00  0.00     0.311 HD
HETATM   30 2HH2 AR7 B   4       5.545  -0.015  24.074  1.00  0.00     0.311 HD
ENDBRANCH  21  22
ENDBRANCH  20  21
ENDBRANCH  19  20
ENDBRANCH  16  19
ENDBRANCH  15  16
ENDBRANCH  11  12
BRANCH  11  31
ATOM     31  CB  LEU B   3      11.486  -1.384  23.120  1.00  0.00     0.031 C
ATOM     32  CG  LEU B   3      12.855  -0.896  23.603  1.00  0.00    -0.015 C
ATOM     33  CD2 LEU B   3      13.691  -0.389  22.438  1.00  0.00     0.007 C
ATOM     34  CD1 LEU B   3      13.596  -1.988  24.357  1.00  0.00     0.007 C
ENDBRANCH  11  31
ENDBRANCH   9  11
ENDBRANCH   6   7
BRANCH   6  35
ATOM     35  CB  LEU B   2       8.992   3.994  22.620  1.00  0.00     0.031 C
ATOM     36  CG  LEU B   2       7.991   3.793  23.752  1.00  0.00    -0.015 C
ATOM     37  CD1 LEU B   2       8.378   4.661  24.933  1.00  0.00     0.007 C
ATOM     38  CD2 LEU B   2       6.587   4.111  23.272  1.00  0.00     0.007 C
ENDBRANCH   6  35
ENDBRANCH   4   6
TORSDOF 11
