REMARK 18 active torsions:
REMARK  status: ('A' for Active; 'I' for Inactive)
REMARK    1  A    between atoms: C02_2  and  O03_3
REMARK    2  A    between atoms: O03_3  and  C04_4
REMARK    3  A    between atoms: C04_4  and  C06_6
REMARK    4  A    between atoms: C06_6  and  C07_7
REMARK    5  A    between atoms: C07_7  and  C08_8
REMARK    6  A    between atoms: C08_8  and  N16_9
REMARK    7  A    between atoms: C08_8  and  C09_42
REMARK    8  A    between atoms: C09_42  and  C10_43
REMARK    9  A    between atoms: C17_11  and  C19_13
REMARK   10  A    between atoms: C19_13  and  N24_14
REMARK   11  A    between atoms: C19_13  and  C20_38
REMARK   12  A    between atoms: C25_16  and  C27_18
REMARK   13  A    between atoms: C27_18  and  C39_19
REMARK   14  A    between atoms: C27_18  and  N28_26
REMARK   15  A    between atoms: C39_19  and  O41_21
REMARK   16  A    between atoms: C29_28  and  O31_30
REMARK   17  A    between atoms: O31_30  and  C32_31
REMARK   18  A    between atoms: C32_31  and  C33_32
ROOT
HETATM    1  C01 TG3 A 401      17.104  24.569  -9.319  1.00  0.00     0.035 C
HETATM    2  C02 TG3 A 401      17.781  25.353  -8.184  1.00  0.00     0.167 C
ENDROOT
BRANCH   2   3
HETATM    3  O03 TG3 A 401      16.946  26.453  -7.996  1.00  0.00    -0.315 OA
BRANCH   3   4
HETATM    4  C04 TG3 A 401      17.172  27.238  -6.878  1.00  0.00     0.262 C
HETATM    5  O05 TG3 A 401      17.320  26.759  -5.805  1.00  0.00    -0.265 OA
BRANCH   4   6
HETATM    6  C06 TG3 A 401      17.139  28.717  -7.166  1.00  0.00     0.108 C
BRANCH   6   7
HETATM    7  C07 TG3 A 401      17.128  29.679  -5.973  1.00  0.00     0.029 C
BRANCH   7   8
HETATM    8  C08 TG3 A 401      18.189  30.742  -6.297  1.00  0.00     0.062 C
BRANCH   8   9
HETATM    9  N16 TG3 A 401      17.514  31.614  -7.240  1.00  0.00    -0.254 N
HETATM   10  H16 TG3 A 401      16.641  32.055  -6.952  1.00  0.00     0.131 HD
HETATM   11  C17 TG3 A 401      18.022  31.891  -8.579  1.00  0.00     0.218 C
HETATM   12  O18 TG3 A 401      19.042  31.407  -8.958  1.00  0.00    -0.278 OA
BRANCH  11  13
HETATM   13  C19 TG3 A 401      17.189  32.845  -9.447  1.00  0.00     0.144 C
BRANCH  13  14
HETATM   14  N24 TG3 A 401      18.119  33.738 -10.100  1.00  0.00    -0.246 N
HETATM   15  O26 TG3 A 401      18.610  34.905  -8.203  1.00  0.00    -0.278 OA
HETATM   16  C25 TG3 A 401      18.811  34.794  -9.342  1.00  0.00     0.221 C
HETATM   17  H24 TG3 A 401      18.298  33.636 -11.099  1.00  0.00     0.131 HD
BRANCH  16  18
HETATM   18  C27 TG3 A 401      19.809  35.758 -10.048  1.00  0.00     0.174 C
BRANCH  18  19
HETATM   19  C39 TG3 A 401      21.197  35.742  -9.428  1.00  0.00     0.142 C
HETATM   20  C40 TG3 A 401      21.738  34.303  -9.434  1.00  0.00     0.040 C
BRANCH  19  21
HETATM   21  O41 TG3 A 401      22.001  36.612 -10.188  1.00  0.00    -0.369 OA
HETATM   22  C42 TG3 A 401      22.808  37.563  -9.546  1.00  0.00     0.062 C
HETATM   23  C45 TG3 A 401      23.526  36.973  -8.320  1.00  0.00     0.041 C
HETATM   24  C43 TG3 A 401      23.908  38.083 -10.472  1.00  0.00     0.041 C
HETATM   25  C44 TG3 A 401      21.899  38.720  -9.183  1.00  0.00     0.041 C
ENDBRANCH  19  21
ENDBRANCH  18  19
BRANCH  18  26
HETATM   26  N28 TG3 A 401      19.269  37.134  -9.970  1.00  0.00    -0.220 N
HETATM   27  O30 TG3 A 401      19.304  37.228 -12.189  1.00  0.00    -0.245 OA
HETATM   28  C29 TG3 A 401      18.835  37.700 -11.226  1.00  0.00     0.339 C
HETATM   29  H28 TG3 A 401      19.208  37.647  -9.091  1.00  0.00     0.134 HD
BRANCH  28  30
HETATM   30  O31 TG3 A 401      17.805  38.662 -11.333  1.00  0.00    -0.298 OA
BRANCH  30  31
HETATM   31  C32 TG3 A 401      17.973  40.055 -11.523  1.00  0.00     0.207 C
BRANCH  31  32
HETATM   32  C33 TG3 A 401      19.087  40.400 -12.507  1.00  0.00    -0.021 A
HETATM   33  C38 TG3 A 401      19.145  39.771 -13.754  1.00  0.00     0.006 A
HETATM   34  C37 TG3 A 401      20.173  40.087 -14.634  1.00  0.00     0.000 A
HETATM   35  C36 TG3 A 401      21.132  41.040 -14.275  1.00  0.00     0.000 A
HETATM   36  C35 TG3 A 401      21.066  41.675 -13.032  1.00  0.00     0.000 A
HETATM   37  C34 TG3 A 401      20.037  41.361 -12.153  1.00  0.00     0.006 A
ENDBRANCH  31  32
ENDBRANCH  30  31
ENDBRANCH  28  30
ENDBRANCH  18  26
ENDBRANCH  16  18
ENDBRANCH  13  14
BRANCH  13  38
HETATM   38  C20 TG3 A 401      16.405  32.094 -10.498  1.00  0.00     0.031 C
HETATM   39  C22 TG3 A 401      14.701  32.178 -12.273  1.00  0.00     0.007 C
HETATM   40  C21 TG3 A 401      15.087  32.730 -10.916  1.00  0.00    -0.015 C
HETATM   41  C23 TG3 A 401      15.106  34.244 -10.997  1.00  0.00     0.007 C
ENDBRANCH  13  38
ENDBRANCH  11  13
ENDBRANCH   8   9
BRANCH   8  42
HETATM   42  C09 TG3 A 401      18.625  31.608  -5.101  1.00  0.00     0.032 C
BRANCH  42  43
HETATM   43  C10 TG3 A 401      19.691  32.553  -5.400  1.00  0.00     0.082 C
HETATM   44  C11 TG3 A 401      20.968  31.816  -5.765  1.00  0.00     0.036 C
HETATM   45  N13 TG3 A 401      21.451  33.423  -4.168  1.00  0.00    -0.250 NA
HETATM   46  O15 TG3 A 401      19.398  33.804  -3.253  1.00  0.00    -0.271 OA
HETATM   47  C12 TG3 A 401      21.952  32.711  -5.472  1.00  0.00     0.146 C
HETATM   48  C14 TG3 A 401      20.107  33.343  -4.094  1.00  0.00     0.245 C
ENDBRANCH  42  43
ENDBRANCH   8  42
ENDBRANCH   7   8
ENDBRANCH   6   7
ENDBRANCH   4   6
ENDBRANCH   3   4
ENDBRANCH   2   3
TORSDOF 18
