MODEL        1
REMARK THIS MODEL IS IDENTICAL TO THE INPUT LIGAND AND NOT FROM DOCKING
REMARK 921   NORMALIZED FREE ENERGY PREDICTED BY IDOCK:   -3.25 KCAL/MOL
REMARK 922        TOTAL FREE ENERGY PREDICTED BY IDOCK:   -3.61 KCAL/MOL
REMARK 923 INTER-LIGAND FREE ENERGY PREDICTED BY IDOCK:   -3.63 KCAL/MOL
REMARK 924 INTRA-LIGAND FREE ENERGY PREDICTED BY IDOCK:    0.02 KCAL/MOL
REMARK 927      BINDING AFFINITY PREDICTED BY RF-SCORE:    0.00 PKD
ROOT
HETATM    1  C13 T0Y A 404       8.230  -4.400  25.745  1.00  0.00    -0.264 C  
HETATM    2  C12 T0Y A 404       8.489  -2.963  25.284  1.00  0.00    -0.222 C  
HETATM    3  N05 T0Y A 404       9.699  -2.817  24.495  1.00  0.00    -0.260 NA 
HETATM    4  C04 T0Y A 404      10.810  -3.401  25.207  1.00  0.00    -0.207 C  
HETATM    5  C02 T0Y A 404       9.333  -4.960  26.482  1.00  0.00    -0.274 C  
HETATM    6  C03 T0Y A 404      10.569  -4.811  25.756  1.00  0.00    -0.478 C  
HETATM    7  H01 T0Y A 404      10.193  -4.739  28.238  1.00  0.00     0.000 HD 
HETATM    8  O01 T0Y A 404       9.465  -4.370  27.752  1.00  0.00    -0.362 OA 
ENDROOT
BRANCH   3   9
HETATM    9  C06 T0Y A 404       9.860  -1.628  24.199  1.00  0.00    -0.242 C  
BRANCH   9  10
HETATM   10  C07 T0Y A 404      11.235  -1.274  23.615  1.00  0.00    -0.312 C  
HETATM   11  C11 T0Y A 404      11.867  -1.913  22.500  1.00  0.00    -0.277 C  
HETATM   12  S10 T0Y A 404      13.311  -1.246  22.208  1.00  0.00    -0.481 SA 
HETATM   13  C09 T0Y A 404      13.356  -0.122  23.370  1.00  0.00     0.024 C  
HETATM   14  C08 T0Y A 404      12.149  -0.172  24.144  1.00  0.00    -0.269 C  
ENDBRANCH   9  10
ENDBRANCH   3   9
TORSDOF 2
ENDMDL
