MODEL        1
REMARK THIS MODEL IS IDENTICAL TO THE INPUT LIGAND AND NOT FROM DOCKING
REMARK 921   NORMALIZED FREE ENERGY PREDICTED BY IDOCK:    1.77 KCAL/MOL
REMARK 922        TOTAL FREE ENERGY PREDICTED BY IDOCK:    2.01 KCAL/MOL
REMARK 923 INTER-LIGAND FREE ENERGY PREDICTED BY IDOCK:    1.98 KCAL/MOL
REMARK 924 INTRA-LIGAND FREE ENERGY PREDICTED BY IDOCK:    0.03 KCAL/MOL
REMARK 927      BINDING AFFINITY PREDICTED BY RF-SCORE:    0.00 PKD
ROOT
HETATM    1  N1  T3V A 404       6.543  -5.018  21.788  1.00  0.00    -0.338 N  
HETATM    2  C7  T3V A 404       7.348  -4.676  22.961  1.00  0.00    -0.363 C  
HETATM    3  C10 T3V A 404       6.643  -4.433  20.573  1.00  0.00     0.979 C  
HETATM    4  O2  T3V A 404       5.819  -4.619  19.688  1.00  0.00    -0.317 OA 
HETATM    5  C6  T3V A 404       6.448  -4.237  24.084  1.00  0.00    -0.264 C  
HETATM    6  C11 T3V A 404       7.819  -3.526  20.331  1.00  0.00     4.043 C  
HETATM    7  N   T3V A 404       5.491  -5.315  24.376  1.00  0.00    -0.266 N  
HETATM    8  C9  T3V A 404       4.671  -5.658  23.203  1.00  0.00    -0.292 C  
HETATM    9  C8  T3V A 404       5.584  -6.080  22.082  1.00  0.00    -0.294 C  
ENDROOT
BRANCH   7  10
HETATM   10  S   T3V A 404       4.754  -5.275  25.841  1.00  0.00    -0.193 S  
HETATM   11  O1  T3V A 404       3.924  -6.437  25.922  1.00  0.00    -0.169 OA 
HETATM   12  O   T3V A 404       5.795  -5.080  26.801  1.00  0.00    -0.205 OA 
BRANCH  10  13
HETATM   13  C5  T3V A 404       3.690  -3.863  25.894  1.00  0.00    -0.120 A  
HETATM   14  C4  T3V A 404       2.314  -4.025  25.794  1.00  0.00    -0.156 A  
HETATM   15  C3  T3V A 404       1.486  -2.919  25.847  1.00  0.00    -0.179 A  
HETATM   16  C2  T3V A 404       2.021  -1.659  26.000  1.00  0.00     0.396 A  
HETATM   17  C1  T3V A 404       3.388  -1.477  26.103  1.00  0.00    -0.042 A  
HETATM   18  C   T3V A 404       4.214  -2.577  26.054  1.00  0.00    -0.123 A  
HETATM   19  F   T3V A 404       5.549  -2.387  26.158  1.00  0.00    -0.115 F  
ENDBRANCH  10  13
ENDBRANCH   7  10
TORSDOF 2
ENDMDL
