MODEL        1
REMARK THIS MODEL IS IDENTICAL TO THE INPUT LIGAND AND NOT FROM DOCKING
REMARK 921   NORMALIZED FREE ENERGY PREDICTED BY IDOCK:   -2.57 KCAL/MOL
REMARK 922        TOTAL FREE ENERGY PREDICTED BY IDOCK:   -6.14 KCAL/MOL
REMARK 923 INTER-LIGAND FREE ENERGY PREDICTED BY IDOCK:   -4.52 KCAL/MOL
REMARK 924 INTRA-LIGAND FREE ENERGY PREDICTED BY IDOCK:   -1.62 KCAL/MOL
REMARK 927      BINDING AFFINITY PREDICTED BY RF-SCORE:    0.00 PKD
ROOT
HETATM    1  C1  VHM A 401      44.343  11.177 -17.360  1.00  0.00    -0.351 A  
HETATM    2  C2  VHM A 401      43.013  11.212 -17.740  1.00  0.00     0.089 A  
HETATM    3  C3  VHM A 401      42.308  10.040 -17.981  1.00  0.00    -0.235 A  
HETATM    4  C4  VHM A 401      42.936   8.812 -17.851  1.00  0.00    -0.060 A  
HETATM    5  C5  VHM A 401      44.274   8.765 -17.478  1.00  0.00    -0.364 A  
HETATM    6  C6  VHM A 401      44.968   9.946 -17.240  1.00  0.00    -0.224 A  
ENDROOT
BRANCH   4   7
HETATM    7  C7  VHM A 401      42.151   7.553 -18.139  1.00  0.00     0.078 C  
BRANCH   7   8
HETATM    8  O8  VHM A 401      41.590   6.975 -16.979  1.00  0.00    -0.104 OA 
BRANCH   8   9
HETATM    9  C9  VHM A 401      42.328   5.921 -16.320  1.00  0.00    -0.098 C  
HETATM   10  N10 VHM A 401      42.130   5.793 -15.024  1.00  0.00    -0.048 N  
HETATM   11  O29 VHM A 401      43.076   5.202 -16.963  1.00  0.00    -0.343 OA 
HETATM   12  H10 VHM A 401      41.460   6.402 -14.555  1.00  0.00     0.000 HD 
BRANCH  10  13
HETATM   13  C11 VHM A 401      42.846   4.806 -14.263  1.00  0.00    -0.223 C  
HETATM   14  C32 VHM A 401      43.835   4.460 -11.988  1.00  0.00    -0.142 C  
HETATM   15  C30 VHM A 401      42.882   5.295 -12.832  1.00  0.00    -0.226 C  
HETATM   16  C31 VHM A 401      43.216   6.781 -12.841  1.00  0.00    -0.207 C  
BRANCH  13  17
HETATM   17  C12 VHM A 401      42.110   3.513 -14.293  1.00  0.00    -0.297 C  
HETATM   18  O33 VHM A 401      40.957   3.459 -13.913  1.00  0.00    -0.425 OA 
HETATM   19  N13 VHM A 401      42.785   2.469 -14.744  1.00  0.00    -0.226 N  
HETATM   20  H13 VHM A 401      43.706   2.609 -15.160  1.00  0.00     0.000 HD 
BRANCH  19  21
HETATM   21  C14 VHM A 401      42.240   1.132 -14.658  1.00  0.00    -0.269 C  
BRANCH  21  22
HETATM   22  C15 VHM A 401      42.097   0.716 -13.229  1.00  0.00    -0.280 C  
HETATM   23  H16 VHM A 401      40.134   0.251 -13.516  1.00  0.00     0.000 HD 
HETATM   24  O38 VHM A 401      43.053   0.797 -12.473  1.00  0.00    -0.217 OA 
HETATM   25  N16 VHM A 401      40.904   0.267 -12.847  1.00  0.00     0.239 N  
BRANCH  25  26
HETATM   26  C17 VHM A 401      40.685  -0.200 -11.489  1.00  0.00     0.919 C  
BRANCH  26  27
HETATM   27  C19 VHM A 401      39.578   0.630 -10.842  1.00  0.00     0.063 C  
BRANCH  27  28
HETATM   28  C20 VHM A 401      40.020   2.089 -10.750  1.00  0.00    -0.361 C  
HETATM   29  C21 VHM A 401      41.122   2.260  -9.709  1.00  0.00    -0.324 C  
HETATM   30  C22 VHM A 401      40.738   3.498  -8.903  1.00  0.00    -0.403 C  
HETATM   31  N23 VHM A 401      39.379   3.799  -9.304  1.00  0.00    -0.160 NA 
HETATM   32  C24 VHM A 401      38.931   2.992 -10.259  1.00  0.00    -0.430 C  
HETATM   33  O26 VHM A 401      37.792   2.969 -10.693  1.00  0.00    -0.640 OA 
ENDBRANCH  27  28
ENDBRANCH  26  27
BRANCH  26  34
HETATM   34  C25 VHM A 401      40.399  -1.704 -11.503  1.00  0.00     3.873 C  
HETATM   35  O27 VHM A 401      40.303  -2.239 -10.187  1.00  0.00    -0.218 OA 
HETATM   36  H27 VHM A 401      40.126  -3.172 -10.196  1.00  0.00     0.000 HD 
ENDBRANCH  26  34
ENDBRANCH  25  26
ENDBRANCH  21  22
BRANCH  21  37
HETATM   37  C34 VHM A 401      43.193   0.176 -15.355  1.00  0.00    -0.294 C  
BRANCH  37  38
HETATM   38  C8  VHM A 401      42.729  -0.160 -16.767  1.00  0.00    -0.492 C  
HETATM   39  C10 VHM A 401      42.298   1.088 -17.529  1.00  0.00    -0.383 C  
HETATM   40  C16 VHM A 401      42.515  -0.492 -19.490  1.00  0.00    -0.192 C  
HETATM   41  C23 VHM A 401      43.880  -0.866 -17.474  1.00  0.00    -0.416 C  
HETATM   42  C13 VHM A 401      41.818   0.748 -18.935  1.00  0.00    -0.519 C  
HETATM   43  C18 VHM A 401      43.937  -0.594 -18.972  1.00  0.00    -0.611 C  
ENDBRANCH  37  38
ENDBRANCH  21  37
ENDBRANCH  19  21
ENDBRANCH  13  17
ENDBRANCH  10  13
ENDBRANCH   8   9
ENDBRANCH   7   8
ENDBRANCH   4   7
TORSDOF 13
ENDMDL
