REMARK  2 active torsions:
REMARK  status: ('A' for Active; 'I' for Inactive)
REMARK    1  A    between atoms: C6_6  and  C7_10
REMARK    2  A    between atoms: C7_10  and  C8_11
ROOT
HETATM    1  N1  T67 A 404      12.457  -0.971  23.699  1.00  0.00    -0.303 NA
HETATM    2  C2  T67 A 404      11.596  -1.906  22.970  1.00  0.00     0.100 C
HETATM    3  C1  T67 A 404      13.863  -1.354  23.577  1.00  0.00     0.105 C
HETATM    4  C3  T67 A 404      10.145  -1.515  23.115  1.00  0.00     0.108 C
HETATM    5  N2  T67 A 404       9.963  -0.154  22.616  1.00  0.00    -0.242 N
HETATM    6  C6  T67 A 404       9.201   0.182  21.560  1.00  0.00     0.208 C
HETATM    7  C4  T67 A 404      10.798   0.802  23.339  1.00  0.00     0.108 C
HETATM    8  C5  T67 A 404      12.247   0.396  23.212  1.00  0.00     0.100 C
HETATM    9  O1  T67 A 404       9.135   1.338  21.148  1.00  0.00    -0.279 OA
ENDROOT
BRANCH   6  10
HETATM   10  C7  T67 A 404       8.434  -0.928  20.858  1.00  0.00     0.129 C
BRANCH  10  11
HETATM   11  C8  T67 A 404       7.559  -0.332  19.807  1.00  0.00    -0.018 A
HETATM   12  C14 T67 A 404       6.357   0.415  20.027  1.00  0.00     0.016 A
HETATM   13  C10 T67 A 404       5.888   0.799  18.756  1.00  0.00     0.118 A
HETATM   14  N3  T67 A 404       6.763   0.329  17.823  1.00  0.00    -0.249 NA
HETATM   15  N4  T67 A 404       4.782   1.522  18.528  1.00  0.00    -0.243 NA
HETATM   16  C9  T67 A 404       7.766  -0.353  18.460  1.00  0.00     0.063 A
HETATM   17  H3  T67 A 404       6.684   0.463  16.815  1.00  0.00     0.134 HD
HETATM   18  C11 T67 A 404       4.096   1.868  19.625  1.00  0.00     0.112 A
HETATM   19  C12 T67 A 404       4.463   1.543  20.928  1.00  0.00     0.020 A
HETATM   20  C13 T67 A 404       5.612   0.812  21.143  1.00  0.00     0.013 A
ENDBRANCH  10  11
ENDBRANCH   6  10
TORSDOF 2
