REMARK 10 active torsions:
REMARK  status: ('A' for Active; 'I' for Inactive)
REMARK    1  A    between atoms: C7_1  and  C1_2
REMARK    2  A    between atoms: C7_1  and  O8_8
REMARK    3  A    between atoms: O8_8  and  C9_9
REMARK    4  A    between atoms: N11_12  and  C12_13
REMARK    5  A    between atoms: C12_13  and  C17_14
REMARK    6  A    between atoms: C12_13  and  C13_29
REMARK    7  A    between atoms: N19_16  and  C20_18
REMARK    8  A    between atoms: C20_18  and  C21_19
REMARK    9  A    between atoms: C20_18  and  C24_22
REMARK   10  A    between atoms: C24_22  and  C25_23
ROOT
HETATM    1  C7  K36 B 401      11.216  37.366  28.324  1.00  0.00     0.207 C
ENDROOT
BRANCH   1   2
HETATM    2  C1  K36 B 401       9.800  37.030  28.716  1.00  0.00    -0.021 A
HETATM    3  C2  K36 B 401       8.975  38.013  29.248  1.00  0.00     0.006 A
HETATM    4  C3  K36 B 401       7.684  37.711  29.659  1.00  0.00     0.000 A
HETATM    5  C6  K36 B 401       9.296  35.739  28.593  1.00  0.00     0.006 A
HETATM    6  C4  K36 B 401       7.200  36.424  29.538  1.00  0.00     0.000 A
HETATM    7  C5  K36 B 401       8.004  35.440  29.001  1.00  0.00     0.000 A
ENDBRANCH   1   2
BRANCH   1   8
HETATM    8  O8 AK36 B 401      11.869  36.244  27.647  1.00  0.00    -0.298 OA
BRANCH   8   9
HETATM    9  C9  K36 B 401      11.621  36.096  26.324  1.00  0.00     0.339 C
HETATM   10  O10 K36 B 401      11.067  36.921  25.630  1.00  0.00    -0.245 OA
HETATM   11  H11 K36 B 401      12.693  34.346  26.469  1.00  0.00     0.133 HD
HETATM   12  N11 K36 B 401      12.068  34.906  25.890  1.00  0.00    -0.222 N
BRANCH  12  13
HETATM   13  C12 K36 B 401      11.650  34.429  24.588  1.00  0.00     0.146 C
BRANCH  13  14
HETATM   14  C17 K36 B 401      10.129  34.252  24.542  1.00  0.00     0.218 C
HETATM   15  H19 K36 B 401      10.113  35.112  22.710  1.00  0.00     0.131 HD
HETATM   16  N19 K36 B 401       9.525  34.691  23.430  1.00  0.00    -0.252 N
HETATM   17  O18 K36 B 401       9.526  33.727  25.475  1.00  0.00    -0.278 OA
BRANCH  16  18
HETATM   18  C20 K36 B 401       8.091  34.614  23.168  1.00  0.00     0.087 C
BRANCH  18  19
HETATM   19  C21 K36 B 401       7.838  33.772  21.866  1.00  0.00     0.174 C
HETATM   20  O22AK36 B 401       6.441  33.524  21.811  1.00  0.00    -0.393 OA
HETATM   21  H  AK36 B 401       6.288  33.015  21.024  1.00  0.00     0.209 HD
ENDBRANCH  18  19
BRANCH  18  22
HETATM   22  C24 K36 B 401       7.499  36.022  23.065  1.00  0.00     0.034 C
BRANCH  22  23
HETATM   23  C25 K36 B 401       7.478  36.787  24.395  1.00  0.00     0.082 C
HETATM   24  C26 K36 B 401       6.677  36.127  25.535  1.00  0.00     0.036 C
HETATM   25  C27 K36 B 401       5.959  37.242  26.236  1.00  0.00     0.146 C
HETATM   26  N28 K36 B 401       5.943  38.306  25.242  1.00  0.00    -0.250 NA
HETATM   27  C29 K36 B 401       6.830  38.152  24.259  1.00  0.00     0.245 C
HETATM   28  O30 K36 B 401       7.056  38.962  23.364  1.00  0.00    -0.271 OA
ENDBRANCH  22  23
ENDBRANCH  18  22
ENDBRANCH  16  18
ENDBRANCH  13  14
BRANCH  13  29
HETATM   29  C13 K36 B 401      12.380  33.133  24.217  1.00  0.00     0.031 C
HETATM   30  C14 K36 B 401      13.913  33.224  24.215  1.00  0.00    -0.015 C
HETATM   31  C15 K36 B 401      14.600  31.891  23.899  1.00  0.00     0.007 C
HETATM   32  C16 K36 B 401      14.407  34.313  23.298  1.00  0.00     0.007 C
ENDBRANCH  13  29
ENDBRANCH  12  13
ENDBRANCH   8   9
ENDBRANCH   1   8
TORSDOF 10
