REMARK  2 active torsions:
REMARK  status: ('A' for Active; 'I' for Inactive)
REMARK    1  A    between atoms: C08_6  and  C02_8
REMARK    2  A    between atoms: C02_8  and  N03_10
ROOT
HETATM    1  C10 T7V A 404      12.814   0.274  23.178  1.00  0.00     0.002 A
HETATM    2  C11 T7V A 404      13.822  -0.248  22.401  1.00  0.00     0.020 A
HETATM    3  C12 T7V A 404      13.562  -1.378  21.667  1.00  0.00     0.041 A
HETATM    4 CL1  T7V A 404      14.808  -2.063  20.667  1.00  0.00    -0.084 Cl
HETATM    5  C14 T7V A 404      12.330  -1.985  21.698  1.00  0.00     0.025 A
HETATM    6  C08 T7V A 404      11.307  -1.466  22.469  1.00  0.00    -0.029 A
HETATM    7  C09 T7V A 404      11.570  -0.331  23.227  1.00  0.00     0.005 A
ENDROOT
BRANCH   6   8
HETATM    8  C02 T7V A 404       9.971  -2.191  22.501  1.00  0.00     0.088 C
HETATM    9  C01 T7V A 404       8.841  -1.412  23.169  1.00  0.00     0.029 C
BRANCH   8  10
HETATM   10  N03 T7V A 404       9.553  -2.641  21.160  1.00  0.00    -0.252 N
HETATM   11  C04 T7V A 404       9.162  -1.846  20.154  1.00  0.00     0.198 C
HETATM   12  H03 T7V A 404       9.562  -3.645  20.982  1.00  0.00     0.131 HD
HETATM   13  C06 T7V A 404       8.756  -2.500  18.831  1.00  0.00     0.105 C
HETATM   14  O05 T7V A 404       9.109  -0.614  20.236  1.00  0.00    -0.280 OA
ENDBRANCH   8  10
ENDBRANCH   6   8
TORSDOF 2
