MODEL        1
REMARK THIS MODEL IS IDENTICAL TO THE INPUT LIGAND AND NOT FROM DOCKING
REMARK 921   NORMALIZED FREE ENERGY PREDICTED BY IDOCK:    0.96 KCAL/MOL
REMARK 922        TOTAL FREE ENERGY PREDICTED BY IDOCK:    1.66 KCAL/MOL
REMARK 923 INTER-LIGAND FREE ENERGY PREDICTED BY IDOCK:    1.08 KCAL/MOL
REMARK 924 INTRA-LIGAND FREE ENERGY PREDICTED BY IDOCK:    0.58 KCAL/MOL
REMARK 927      BINDING AFFINITY PREDICTED BY RF-SCORE:    0.00 PKD
ROOT
HETATM    1  N1  T7A A 404       7.168  -4.606  23.460  1.00  0.00    -0.333 NA 
HETATM    2  C6  T7A A 404       6.643  -4.598  22.268  1.00  0.00    -0.302 A  
HETATM    3  S   T7A A 404       5.223  -5.587  22.022  1.00  0.00    -0.077 SA 
HETATM    4  C9  T7A A 404       6.337  -5.299  24.325  1.00  0.00    -0.329 A  
HETATM    5  C1  T7A A 404       6.520  -5.433  25.699  1.00  0.00    -0.317 A  
HETATM    6  C5  T7A A 404       5.218  -5.907  23.736  1.00  0.00    -0.291 A  
HETATM    7  C2  T7A A 404       5.604  -6.162  26.454  1.00  0.00    -0.385 A  
HETATM    8  C4  T7A A 404       4.294  -6.635  24.476  1.00  0.00    -0.331 A  
HETATM    9  C3  T7A A 404       4.501  -6.754  25.833  1.00  0.00    -0.347 A  
ENDROOT
BRANCH   2  10
HETATM   10  N   T7A A 404       7.203  -3.836  21.263  1.00  0.00    -0.248 N  
HETATM   11  O1  T7A A 404       5.678  -4.257  19.644  1.00  0.00    -0.923 OA 
HETATM   12  H   T7A A 404       8.064  -3.335  21.482  1.00  0.00     0.000 HD 
HETATM   13  C7  T7A A 404       6.702  -3.695  19.997  1.00  0.00     1.079 C  
HETATM   14  C8  T7A A 404       7.506  -2.803  19.082  1.00  0.00     4.142 C  
ENDBRANCH   2  10
BRANCH   5  15
HETATM   15  O   T7A A 404       7.628  -4.819  26.194  1.00  0.00    -0.286 OA 
HETATM   16  C   T7A A 404       7.792  -4.746  27.610  1.00  0.00     0.025 C  
ENDBRANCH   5  15
TORSDOF 2
ENDMDL
