MODEL        1
REMARK THIS MODEL IS IDENTICAL TO THE INPUT LIGAND AND NOT FROM DOCKING
REMARK 921   NORMALIZED FREE ENERGY PREDICTED BY IDOCK:    1.94 KCAL/MOL
REMARK 922        TOTAL FREE ENERGY PREDICTED BY IDOCK:    1.84 KCAL/MOL
REMARK 923 INTER-LIGAND FREE ENERGY PREDICTED BY IDOCK:    2.16 KCAL/MOL
REMARK 924 INTRA-LIGAND FREE ENERGY PREDICTED BY IDOCK:   -0.32 KCAL/MOL
REMARK 927      BINDING AFFINITY PREDICTED BY RF-SCORE:    0.00 PKD
ROOT
HETATM    1  N1  U1A A 404       6.860  -5.158  21.560  1.00  0.00    -0.412 N  
HETATM    2  C8  U1A A 404       6.188  -6.348  22.082  1.00  0.00    -0.294 C  
HETATM    3  C11 U1A A 404       6.466  -4.614  20.388  1.00  0.00     1.058 C  
HETATM    4  C12 U1A A 404       7.125  -3.331  19.956  1.00  0.00     3.942 C  
HETATM    5  C7  U1A A 404       5.250  -5.954  23.192  1.00  0.00    -0.328 C  
HETATM    6  O2  U1A A 404       5.591  -5.114  19.693  1.00  0.00    -0.247 OA 
HETATM    7  N   U1A A 404       6.033  -5.282  24.240  1.00  0.00    -0.308 N  
HETATM    8  C10 U1A A 404       6.693  -4.067  23.733  1.00  0.00    -0.260 C  
HETATM    9  C9  U1A A 404       7.610  -4.440  22.596  1.00  0.00    -0.361 C  
ENDROOT
BRANCH   7  10
HETATM   10  S   U1A A 404       5.384  -5.221  25.744  1.00  0.00    -0.236 S  
HETATM   11  O1  U1A A 404       4.752  -6.483  25.971  1.00  0.00    -0.269 OA 
HETATM   12  O   U1A A 404       6.434  -4.786  26.611  1.00  0.00    -0.216 OA 
BRANCH  10  13
HETATM   13  C4  U1A A 404       4.109  -3.996  25.750  1.00  0.00    -0.030 A  
HETATM   14  C5  U1A A 404       2.870  -4.300  25.209  1.00  0.00    -0.164 A  
HETATM   15  C6  U1A A 404       1.874  -3.342  25.222  1.00  0.00     0.071 A  
HETATM   16  C1  U1A A 404       2.084  -2.087  25.770  1.00  0.00     0.159 A  
HETATM   17  C2  U1A A 404       3.329  -1.809  26.310  1.00  0.00     0.152 A  
HETATM   18  C   U1A A 404       0.995  -1.053  25.774  1.00  0.00    -0.167 C  
HETATM   19  C3  U1A A 404       4.342  -2.750  26.312  1.00  0.00     0.073 A  
ENDBRANCH  10  13
ENDBRANCH   7  10
TORSDOF 2
ENDMDL
