REMARK  6 active torsions:
REMARK  status: ('A' for Active; 'I' for Inactive)
REMARK    1  A    between atoms: C4_2  and  C3_9
REMARK    2  A    between atoms: C3_9  and  C9_10
REMARK    3  A    between atoms: C3_9  and  N_16
REMARK    4  A    between atoms: N_16  and  C14_19
REMARK    5  A    between atoms: C2_18  and  C1_28
REMARK    6  A    between atoms: C15_23  and  C17_24
ROOT
HETATM    1  N1  UHS A 405       8.058   2.239  22.903  1.00  0.00    -0.252 N
HETATM    2  C4  UHS A 405       8.126   1.603  21.723  1.00  0.00     0.224 C
HETATM    3  C5  UHS A 405       9.067   3.167  23.470  1.00  0.00     0.018 C
HETATM    4  H1  UHS A 405       7.227   2.066  23.468  1.00  0.00     0.131 HD
HETATM    5  O1  UHS A 405       8.971   1.824  20.859  1.00  0.00    -0.277 OA
HETATM    6  C6  UHS A 405       8.988   3.042  24.986  1.00  0.00     0.027 C
HETATM    7  C8  UHS A 405      10.473   2.816  22.999  1.00  0.00     0.027 C
HETATM    8  C7  UHS A 405       8.714   4.586  23.042  1.00  0.00     0.027 C
ENDROOT
BRANCH   2   9
HETATM    9  C3  UHS A 405       7.013   0.564  21.497  1.00  0.00     0.185 C
BRANCH   9  10
HETATM   10  C9  UHS A 405       6.383   0.696  20.118  1.00  0.00    -0.003 A
HETATM   11  C11 UHS A 405       5.398   1.108  17.604  1.00  0.00     0.111 A
HETATM   12  C12 UHS A 405       4.724   1.653  18.673  1.00  0.00     0.020 A
HETATM   13  C10 UHS A 405       6.967   0.172  18.974  1.00  0.00     0.116 A
HETATM   14  C13 UHS A 405       5.227   1.439  19.941  1.00  0.00     0.008 A
HETATM   15  N2  UHS A 405       6.501   0.364  17.734  1.00  0.00    -0.263 NA
ENDBRANCH   9  10
BRANCH   9  16
HETATM   16  N   UHS A 405       7.433  -0.806  21.889  1.00  0.00    -0.180 N
HETATM   17  O   UHS A 405       5.496  -1.955  21.823  1.00  0.00    -0.279 OA
HETATM   18  C2  UHS A 405       6.698  -1.962  21.614  1.00  0.00     0.210 C
BRANCH  16  19
HETATM   19  C14 UHS A 405       8.597  -1.041  22.702  1.00  0.00     0.147 A
HETATM   20  O2  UHS A 405       9.801  -1.631  24.431  1.00  0.00    -0.215 OA
HETATM   21  C16 UHS A 405       9.955  -0.743  22.410  1.00  0.00     0.074 A
HETATM   22  N3  UHS A 405       8.475  -1.594  23.933  1.00  0.00    -0.115 NA
HETATM   23  C15 UHS A 405      10.633  -1.111  23.505  1.00  0.00     0.094 A
BRANCH  23  24
HETATM   24  C17 UHS A 405      12.102  -0.954  23.848  1.00  0.00     0.011 C
HETATM   25  C19 UHS A 405      12.271   0.226  24.813  1.00  0.00     0.017 C
HETATM   26  C18 UHS A 405      12.908  -0.674  22.576  1.00  0.00     0.017 C
HETATM   27  C20 UHS A 405      12.632  -2.240  24.497  1.00  0.00     0.017 C
ENDBRANCH  23  24
ENDBRANCH  16  19
BRANCH  18  28
HETATM   28  C1  UHS A 405       7.417  -3.183  21.099  1.00  0.00     0.089 C
HETATM   29  C   UHS A 405       6.836  -3.674  19.802  1.00  0.00     0.013 C
ENDBRANCH  18  28
ENDBRANCH   9  16
ENDBRANCH   2   9
TORSDOF 6
