MODEL        1
REMARK THIS MODEL IS IDENTICAL TO THE INPUT LIGAND AND NOT FROM DOCKING
REMARK 921   NORMALIZED FREE ENERGY PREDICTED BY IDOCK:    1.14 KCAL/MOL
REMARK 922        TOTAL FREE ENERGY PREDICTED BY IDOCK:    1.44 KCAL/MOL
REMARK 923 INTER-LIGAND FREE ENERGY PREDICTED BY IDOCK:    1.27 KCAL/MOL
REMARK 924 INTRA-LIGAND FREE ENERGY PREDICTED BY IDOCK:    0.17 KCAL/MOL
REMARK 927      BINDING AFFINITY PREDICTED BY RF-SCORE:    0.00 PKD
ROOT
HETATM    1  C4  T4M A 404       6.417  -4.156  23.921  1.00  0.00    -0.309 A  
HETATM    2  C5  T4M A 404       5.090  -4.377  23.638  1.00  0.00    -0.020 A  
HETATM    3  C13 T4M A 404       6.845  -4.152  25.297  1.00  0.00    -0.287 A  
HETATM    4  C9  T4M A 404       6.268  -4.383  27.675  1.00  0.00    -0.227 A  
HETATM    5  C6  T4M A 404       4.140  -4.593  24.653  1.00  0.00    -0.205 A  
HETATM    6  C8  T4M A 404       5.871  -4.377  26.316  1.00  0.00    -0.203 A  
HETATM    7  C10 T4M A 404       7.563  -4.178  28.023  1.00  0.00    -0.117 A  
HETATM    8  C7  T4M A 404       4.522  -4.595  25.953  1.00  0.00    -0.170 A  
HETATM    9  C11 T4M A 404       8.533  -3.952  27.037  1.00  0.00    -0.401 A  
HETATM   10  C12 T4M A 404       8.187  -3.936  25.718  1.00  0.00    -0.265 A  
ENDROOT
BRANCH   1  11
HETATM   11  C1  T4M A 404       7.409  -3.909  22.792  1.00  0.00    -0.341 C  
HETATM   12  C   T4M A 404       7.474  -2.432  22.422  1.00  0.00    -0.320 C  
BRANCH  11  13
HETATM   13  N   T4M A 404       7.141  -4.763  21.625  1.00  0.00    -0.293 N  
HETATM   14  C3  T4M A 404       6.851  -3.264  19.601  1.00  0.00     4.073 C  
HETATM   15  H   T4M A 404       7.497  -5.718  21.677  1.00  0.00     0.000 HD 
HETATM   16  C2  T4M A 404       6.484  -4.438  20.499  1.00  0.00     0.977 C  
HETATM   17  O   T4M A 404       5.607  -5.162  20.023  1.00  0.00    -0.621 OA 
ENDBRANCH  11  13
ENDBRANCH   1  11
TORSDOF 2
ENDMDL
