MODEL        1
REMARK THIS MODEL IS IDENTICAL TO THE INPUT LIGAND AND NOT FROM DOCKING
REMARK 921   NORMALIZED FREE ENERGY PREDICTED BY IDOCK:    2.14 KCAL/MOL
REMARK 922        TOTAL FREE ENERGY PREDICTED BY IDOCK:    2.41 KCAL/MOL
REMARK 923 INTER-LIGAND FREE ENERGY PREDICTED BY IDOCK:    2.39 KCAL/MOL
REMARK 924 INTRA-LIGAND FREE ENERGY PREDICTED BY IDOCK:    0.02 KCAL/MOL
REMARK 927      BINDING AFFINITY PREDICTED BY RF-SCORE:    0.00 PKD
ROOT
HETATM    1  N1  T8M A1001       8.809  -2.348  23.020  1.00  0.00    -0.259 NA 
HETATM    2  C2  T8M A1001       6.671  -3.255  22.160  1.00  0.00    -0.284 C  
HETATM    3  C9  T8M A1001       9.057  -1.740  21.699  1.00  0.00    -0.405 C  
HETATM    4  C   T8M A1001       7.158  -2.517  18.440  1.00  0.00     4.245 C  
HETATM    5  C10 T8M A1001       7.750  -1.385  21.027  1.00  0.00    -0.254 C  
HETATM    6  O   T8M A1001       5.877  -4.127  19.620  1.00  0.00    -0.834 OA 
HETATM    7  N   T8M A1001       6.942  -2.598  20.876  1.00  0.00    -0.167 N  
HETATM    8  C1  T8M A1001       6.571  -3.129  19.694  1.00  0.00     1.038 C  
HETATM    9  C3  T8M A1001       7.987  -3.566  22.873  1.00  0.00    -0.349 C  
ENDROOT
BRANCH   1  10
HETATM   10  C4  T8M A1001      10.069  -2.656  23.702  1.00  0.00    -0.528 C  
BRANCH  10  11
HETATM   11  C5  T8M A1001      11.055  -1.526  23.685  1.00  0.00     0.114 A  
HETATM   12  C6  T8M A1001      12.130  -1.319  22.775  1.00  0.00     0.136 A  
HETATM   13  C7  T8M A1001      12.820  -0.115  23.070  1.00  0.00     0.051 A  
HETATM   14  C8  T8M A1001      12.301   0.542  24.128  1.00  0.00    -0.107 A  
HETATM   15  S   T8M A1001      10.967  -0.265  24.821  1.00  0.00    -0.006 SA 
ENDBRANCH  10  11
ENDBRANCH   1  10
TORSDOF 2
ENDMDL
