REMARK  1 active torsions:
REMARK  status: ('A' for Active; 'I' for Inactive)
REMARK    1  A    between atoms: C6_2  and  C7_12
ROOT
HETATM    1  N1  T8J A 404       8.250  -2.787  23.526  1.00  0.00    -0.237 N
HETATM    2  C6  T8J A 404       8.393  -2.495  24.843  1.00  0.00     0.241 C
HETATM    3  C4  T8J A 404       8.782  -1.995  22.417  1.00  0.00     0.109 C
HETATM    4  O1  T8J A 404       8.289  -1.354  25.287  1.00  0.00    -0.273 OA
HETATM    5  C   T8J A 404       7.140  -2.555  18.579  1.00  0.00     0.105 C
HETATM    6  C5  T8J A 404       7.694  -1.717  21.394  1.00  0.00     0.108 C
HETATM    7  N   T8J A 404       6.951  -2.928  21.015  1.00  0.00    -0.242 N
HETATM    8  O   T8J A 404       5.750  -4.184  19.603  1.00  0.00    -0.280 OA
HETATM    9  C3  T8J A 404       7.693  -4.052  23.055  1.00  0.00     0.109 C
HETATM   10  C2  T8J A 404       6.524  -3.746  22.151  1.00  0.00     0.108 C
HETATM   11  C1  T8J A 404       6.559  -3.280  19.774  1.00  0.00     0.200 C
ENDROOT
BRANCH   2  12
HETATM   12  C7  T8J A 404       8.684  -3.586  25.715  1.00  0.00     0.071 A
HETATM   13  C8  T8J A 404       9.579  -4.607  25.464  1.00  0.00     0.020 A
HETATM   14  C10 T8J A 404       8.674  -5.295  27.467  1.00  0.00     0.046 A
HETATM   15  C9  T8J A 404       9.449  -5.638  26.415  1.00  0.00     0.008 A
HETATM   16  S   T8J A 404       7.913  -3.795  27.241  1.00  0.00    -0.092 SA
ENDBRANCH   2  12
TORSDOF 1
