MODEL        1
REMARK THIS MODEL IS IDENTICAL TO THE INPUT LIGAND AND NOT FROM DOCKING
REMARK 921   NORMALIZED FREE ENERGY PREDICTED BY IDOCK:    1.26 KCAL/MOL
REMARK 922        TOTAL FREE ENERGY PREDICTED BY IDOCK:    1.36 KCAL/MOL
REMARK 923 INTER-LIGAND FREE ENERGY PREDICTED BY IDOCK:    1.40 KCAL/MOL
REMARK 924 INTRA-LIGAND FREE ENERGY PREDICTED BY IDOCK:   -0.05 KCAL/MOL
REMARK 927      BINDING AFFINITY PREDICTED BY RF-SCORE:    0.00 PKD
ROOT
HETATM    1  N1  T81 A 404       8.517  -2.692  23.343  1.00  0.00    -0.225 NA 
HETATM    2  C9  T81 A 404       7.620  -3.797  22.983  1.00  0.00    -0.284 C  
HETATM    3  C3  T81 A 404       8.955  -2.012  22.118  1.00  0.00    -0.366 C  
HETATM    4  C2  T81 A 404       7.777  -1.519  21.306  1.00  0.00    -0.307 C  
HETATM    5  C   T81 A 404       7.312  -2.504  18.534  1.00  0.00     4.247 C  
HETATM    6  O   T81 A 404       5.787  -3.999  19.579  1.00  0.00    -0.892 OA 
HETATM    7  N   T81 A 404       6.901  -2.641  20.975  1.00  0.00    -0.224 N  
HETATM    8  C1  T81 A 404       6.598  -3.094  19.738  1.00  0.00     0.983 C  
HETATM    9  C10 T81 A 404       6.433  -3.305  22.189  1.00  0.00    -0.290 C  
ENDROOT
BRANCH   1  10
HETATM   10  C4  T81 A 404       9.680  -3.164  24.124  1.00  0.00    -0.431 C  
BRANCH  10  11
HETATM   11  C5  T81 A 404       9.351  -4.246  25.109  1.00  0.00    -0.306 A  
HETATM   12  C6  T81 A 404       9.657  -5.603  24.998  1.00  0.00    -0.270 A  
HETATM   13  C8  T81 A 404       8.551  -5.571  27.040  1.00  0.00    -0.444 A  
HETATM   14  C7  T81 A 404       9.335  -6.340  26.161  1.00  0.00     0.266 A  
HETATM   15  S   T81 A 404       8.485  -3.924  26.577  1.00  0.00    -0.349 SA 
HETATM   16 BR   T81 A 404       7.631  -6.157  28.562  1.00  0.00     0.296 Br 
ENDBRANCH  10  11
ENDBRANCH   1  10
TORSDOF 2
ENDMDL
