REMARK  1 active torsions:
REMARK  status: ('A' for Active; 'I' for Inactive)
REMARK    1  A    between atoms: C2_3  and  C3_5
ROOT
HETATM    1  C1  SIN A 409       7.075  -3.870  19.966  1.00  0.00     0.176 C
HETATM    2  O1  SIN A 409       6.173  -4.689  19.725  1.00  0.00    -0.648 OA
HETATM    3  C2  SIN A 409       7.495  -2.882  18.942  1.00  0.00     0.119 C
HETATM    4  O2  SIN A 409       7.641  -3.917  21.095  1.00  0.00    -0.648 OA
ENDROOT
BRANCH   3   5
HETATM    5  C3  SIN A 409       7.947  -1.573  19.594  1.00  0.00     0.119 C
HETATM    6  C4  SIN A 409       6.753  -0.843  20.182  1.00  0.00     0.176 C
HETATM    7  O3  SIN A 409       6.423   0.282  19.740  1.00  0.00    -0.648 OA
HETATM    8  O4  SIN A 409       6.106  -1.365  21.135  1.00  0.00    -0.648 OA
ENDBRANCH   3   5
TORSDOF 1
