REMARK  4 active torsions:
REMARK  status: ('A' for Active; 'I' for Inactive)
REMARK    1  A    between atoms: C08_3  and  C07_7
REMARK    2  A    between atoms: C07_7  and  C06_8
REMARK    3  A    between atoms: C06_8  and  N05_9
REMARK    4  A    between atoms: N05_9  and  S02_11
ROOT
HETATM    1  C10 JFM A1001      13.168  -0.783  22.283  1.00  0.00     0.000 A
HETATM    2  C09 JFM A1001      11.968  -1.464  22.283  1.00  0.00     0.004 A
HETATM    3  C08 JFM A1001      10.940  -1.053  23.114  1.00  0.00    -0.045 A
HETATM    4  C11 JFM A1001      13.342   0.313  23.115  1.00  0.00     0.000 A
HETATM    5  C13 JFM A1001      11.106   0.037  23.953  1.00  0.00     0.004 A
HETATM    6  C12 JFM A1001      12.309   0.728  23.949  1.00  0.00     0.000 A
ENDROOT
BRANCH   3   7
HETATM    7  C07 JFM A1001       9.631  -1.828  23.124  1.00  0.00     0.063 C
BRANCH   7   8
HETATM    8  C06 JFM A1001       9.819  -3.037  24.030  1.00  0.00     0.207 C
BRANCH   8   9
HETATM    9  N05 JFM A1001       8.562  -3.500  24.567  1.00  0.00    -0.906 N
HETATM   10  H05 JFM A1001       7.691  -3.323  24.066  1.00  0.00     0.254 HD
BRANCH   9  11
HETATM   11  S02 JFM A1001       8.548  -4.344  26.043  1.00  0.00     2.579 S
HETATM   12  C01 JFM A1001       9.948  -5.500  26.143  1.00  0.00    -0.312 C
HETATM   13  O03 JFM A1001       7.260  -5.021  26.207  1.00  0.00    -0.924 OA
HETATM   14  O04 JFM A1001       8.507  -3.446  27.187  1.00  0.00    -0.924 OA
ENDBRANCH   9  11
ENDBRANCH   8   9
ENDBRANCH   7   8
ENDBRANCH   3   7
TORSDOF 4
