MODEL        1
REMARK THIS MODEL IS IDENTICAL TO THE INPUT LIGAND AND NOT FROM DOCKING
REMARK 921   NORMALIZED FREE ENERGY PREDICTED BY IDOCK:   -4.77 KCAL/MOL
REMARK 922        TOTAL FREE ENERGY PREDICTED BY IDOCK:   -5.79 KCAL/MOL
REMARK 923 INTER-LIGAND FREE ENERGY PREDICTED BY IDOCK:   -5.89 KCAL/MOL
REMARK 924 INTRA-LIGAND FREE ENERGY PREDICTED BY IDOCK:    0.10 KCAL/MOL
REMARK 927      BINDING AFFINITY PREDICTED BY RF-SCORE:    0.00 PKD
ROOT
HETATM    1  N1  K0G A 404       7.330  -0.662  20.931  1.00  0.00    -0.333 N  
HETATM    2  H1  K0G A 404       6.882  -1.458  21.386  1.00  0.00     0.000 HD 
ENDROOT
BRANCH   1   3
HETATM    3  C7  K0G A 404       6.649   0.027  19.868  1.00  0.00    -0.341 A  
HETATM    4  C10 K0G A 404       5.406   1.281  17.851  1.00  0.00    -0.323 A  
HETATM    5  N2  K0G A 404       6.555   0.685  17.640  1.00  0.00    -0.767 NA 
HETATM    6  C8  K0G A 404       5.445   0.652  20.152  1.00  0.00    -0.527 A  
HETATM    7  C9  K0G A 404       4.815   1.312  19.109  1.00  0.00    -0.620 A  
HETATM    8  C11 K0G A 404       7.189   0.056  18.594  1.00  0.00    -0.431 A  
ENDBRANCH   1   3
BRANCH   1   9
HETATM    9  C   K0G A 404       8.639  -0.239  21.360  1.00  0.00    -0.324 C  
HETATM   10  O   K0G A 404       9.192   0.679  20.850  1.00  0.00    -0.593 OA 
BRANCH   9  11
HETATM   11  N   K0G A 404       9.279  -0.969  22.427  1.00  0.00    -0.272 N  
HETATM   12  H   K0G A 404       8.840  -1.777  22.868  1.00  0.00     0.000 HD 
BRANCH  11  13
HETATM   13  C1  K0G A 404      10.566  -0.493  22.830  1.00  0.00    -0.302 A  
HETATM   14  C5  K0G A 404      11.811   0.848  24.344  1.00  0.00    -0.501 A  
HETATM   15  C4  K0G A 404      12.969   0.533  23.647  1.00  0.00    -0.091 A  
HETATM   16  C6  K0G A 404      10.605   0.338  23.931  1.00  0.00    -0.354 A  
HETATM   17  C3  K0G A 404      12.922  -0.298  22.541  1.00  0.00     0.260 A  
HETATM   18  C2  K0G A 404      11.709  -0.808  22.121  1.00  0.00    -0.367 A  
ENDBRANCH  11  13
ENDBRANCH   9  11
ENDBRANCH   1   9
TORSDOF 4
ENDMDL
