REMARK 13 active torsions:
REMARK  status: ('A' for Active; 'I' for Inactive)
REMARK    1  A    between atoms: C24_2  and  O25_5
REMARK    2  A    between atoms: N23_4  and  C19_10
REMARK    3  A    between atoms: N15_14  and  C20_17
REMARK    4  A    between atoms: C20_17  and  C36_18
REMARK    5  A    between atoms: C20_17  and  C22_44
REMARK    6  A    between atoms: C22_44  and  C29_45
REMARK    7  A    between atoms: N38_21  and  C40_22
REMARK    8  A    between atoms: C40_22  and  C42_23
REMARK    9  A    between atoms: C40_22  and  C57_30
REMARK   10  A    between atoms: C42_23  and  C45_24
REMARK   11  A    between atoms: C57_30  and  C35_33
REMARK   12  A    between atoms: N36_34  and  C13_37
REMARK   13  A    between atoms: C13_37  and  C14_38
ROOT
HETATM    1  O26 O6K A 402     -19.382  -9.336 -32.329  1.00  0.00    -0.245 OA
HETATM    2  C24 O6K A 402     -18.603  -8.584 -31.760  1.00  0.00     0.343 C
HETATM    3  H23 O6K A 402     -18.226  -6.945 -30.688  1.00  0.00     0.139 HD
HETATM    4  N23 O6K A 402     -18.962  -7.501 -31.124  1.00  0.00    -0.199 N
ENDROOT
BRANCH   2   5
HETATM    5  O25 O6K A 402     -17.185  -8.851 -31.747  1.00  0.00    -0.296 OA
HETATM    6  C31 O6K A 402     -17.707 -10.933 -30.606  1.00  0.00     0.041 C
HETATM    7  C27 O6K A 402     -16.771 -10.191 -31.573  1.00  0.00     0.072 C
HETATM    8  C33 O6K A 402     -16.756 -10.771 -32.990  1.00  0.00     0.041 C
HETATM    9  C32 O6K A 402     -15.391 -10.211 -30.938  1.00  0.00     0.041 C
ENDBRANCH   2   5
BRANCH   4  10
HETATM   10  C19 O6K A 402     -20.227  -7.064 -31.000  1.00  0.00     0.083 C
HETATM   11  C18 O6K A 402     -21.366  -7.698 -31.509  1.00  0.00     0.026 C
HETATM   12  C17 O6K A 402     -22.625  -7.153 -31.298  1.00  0.00     0.014 C
HETATM   13  C16 O6K A 402     -22.773  -5.989 -30.589  1.00  0.00     0.064 C
HETATM   14  N15 O6K A 402     -21.703  -5.345 -30.095  1.00  0.00    -0.205 N
HETATM   15  O22 O6K A 402     -19.366  -5.200 -29.701  1.00  0.00    -0.272 OA
HETATM   16  C21 O6K A 402     -20.380  -5.811 -30.220  1.00  0.00     0.250 C
BRANCH  14  17
HETATM   17  C20 O6K A 402     -21.791  -4.164 -29.267  1.00  0.00     0.152 C
BRANCH  17  18
HETATM   18  C36 O6K A 402     -21.545  -4.628 -27.834  1.00  0.00     0.219 C
HETATM   19  O37 O6K A 402     -21.892  -5.755 -27.384  1.00  0.00    -0.278 OA
HETATM   20  H38 O6K A 402     -20.573  -2.883 -27.501  1.00  0.00     0.131 HD
HETATM   21  N38 O6K A 402     -20.904  -3.754 -27.085  1.00  0.00    -0.251 N
BRANCH  21  22
HETATM   22  C40 O6K A 402     -20.656  -4.018 -25.641  1.00  0.00     0.102 C
BRANCH  22  23
HETATM   23  C42 O6K A 402     -19.157  -3.921 -25.296  1.00  0.00     0.058 C
BRANCH  23  24
HETATM   24  C45 O6K A 402     -18.315  -5.107 -25.818  1.00  0.00     0.003 C
HETATM   25  C54 O6K A 402     -18.696  -6.451 -25.205  1.00  0.00     0.083 C
HETATM   26  C47 O6K A 402     -16.812  -4.939 -25.529  1.00  0.00     0.270 C
HETATM   27  O48 O6K A 402     -16.151  -3.892 -25.741  1.00  0.00    -0.266 OA
HETATM   28  C51 O6K A 402     -17.367  -7.107 -24.757  1.00  0.00     0.092 C
HETATM   29  N49 O6K A 402     -16.344  -6.092 -25.040  1.00  0.00    -0.222 NA
ENDBRANCH  23  24
ENDBRANCH  22  23
BRANCH  22  30
HETATM   30  C57 O6K A 402     -21.506  -2.922 -24.974  1.00  0.00     0.214 C
HETATM   31  H40 O6K A 402     -23.419  -2.125 -24.999  1.00  0.00     0.210 HD
HETATM   32  O40 O6K A 402     -22.894  -2.802 -25.411  1.00  0.00    -0.381 OA
BRANCH  30  33
HETATM   33  C35 O6K A 402     -21.527  -3.067 -23.504  1.00  0.00     0.231 C
HETATM   34  N36 O6K A 402     -22.552  -3.329 -22.863  1.00  0.00    -0.252 N
HETATM   35  O41 O6K A 402     -20.546  -2.809 -22.848  1.00  0.00    -0.277 OA
HETATM   36  H36 O6K A 402     -22.358  -3.215 -21.868  1.00  0.00     0.131 HD
BRANCH  34  37
HETATM   37  C13 O6K A 402     -23.887  -3.728 -23.024  1.00  0.00     0.124 C
BRANCH  37  38
HETATM   38  C14 O6K A 402     -23.969  -5.133 -22.455  1.00  0.00    -0.033 A
HETATM   39  C28 O6K A 402     -24.368  -5.327 -21.139  1.00  0.00     0.005 A
HETATM   40  C26 O6K A 402     -24.492  -6.631 -20.648  1.00  0.00     0.000 A
HETATM   41  C25 O6K A 402     -24.218  -7.747 -21.465  1.00  0.00     0.000 A
HETATM   42  C23 O6K A 402     -23.814  -7.541 -22.780  1.00  0.00     0.000 A
HETATM   43  C15 O6K A 402     -23.692  -6.246 -23.279  1.00  0.00     0.005 A
ENDBRANCH  37  38
ENDBRANCH  34  37
ENDBRANCH  30  33
ENDBRANCH  22  30
ENDBRANCH  21  22
ENDBRANCH  17  18
BRANCH  17  44
HETATM   44  C22 O6K A 402     -23.109  -3.390 -29.384  1.00  0.00     0.032 C
BRANCH  44  45
HETATM   45  C29 O6K A 402     -23.437  -2.974 -30.819  1.00  0.00    -0.009 C
HETATM   46  C34 O6K A 402     -22.505  -1.986 -31.520  1.00  0.00     0.004 C
HETATM   47  C30 O6K A 402     -23.889  -1.531 -31.055  1.00  0.00     0.004 C
ENDBRANCH  44  45
ENDBRANCH  17  44
ENDBRANCH  14  17
ENDBRANCH   4  10
TORSDOF 13
