MODEL        1
REMARK THIS MODEL IS IDENTICAL TO THE INPUT LIGAND AND NOT FROM DOCKING
REMARK 921   NORMALIZED FREE ENERGY PREDICTED BY IDOCK:   -6.28 KCAL/MOL
REMARK 922        TOTAL FREE ENERGY PREDICTED BY IDOCK:   -7.80 KCAL/MOL
REMARK 923 INTER-LIGAND FREE ENERGY PREDICTED BY IDOCK:   -7.74 KCAL/MOL
REMARK 924 INTRA-LIGAND FREE ENERGY PREDICTED BY IDOCK:   -0.05 KCAL/MOL
REMARK 927      BINDING AFFINITY PREDICTED BY RF-SCORE:    0.00 PKD
ROOT
HETATM    1  N1  UGS A1001      10.648   3.365  22.176  1.00  0.00    -0.558 N  
HETATM    2  O1  UGS A1001      11.220   3.628  24.357  1.00  0.00    -0.103 OA 
HETATM    3  C5  UGS A1001      11.223   4.026  23.203  1.00  0.00    -0.396 C  
HETATM    4  H1  UGS A1001      10.589   3.884  21.300  1.00  0.00     0.000 HD 
ENDROOT
BRANCH   1   5
HETATM    5  C4  UGS A1001      10.121   2.068  22.141  1.00  0.00    -0.419 A  
HETATM    6  C2  UGS A1001       9.182  -0.471  21.757  1.00  0.00    -0.350 A  
HETATM    7  C17 UGS A1001      10.354   1.112  23.138  1.00  0.00    -0.331 A  
HETATM    8  C1  UGS A1001       9.868  -0.169  22.925  1.00  0.00    -0.280 A  
HETATM    9  N   UGS A1001       9.431   1.805  21.019  1.00  0.00    -0.606 NA 
HETATM   10  C3  UGS A1001       8.982   0.553  20.849  1.00  0.00    -0.364 A  
BRANCH   8  11
HETATM   11  O   UGS A1001      10.104  -1.012  23.980  1.00  0.00    -0.350 OA 
HETATM   12  C   UGS A1001       9.641  -2.362  23.890  1.00  0.00    -0.482 C  
ENDBRANCH   8  11
ENDBRANCH   1   5
BRANCH   3  13
HETATM   13  C6  UGS A1001      11.894   5.328  22.819  1.00  0.00    -0.333 C  
BRANCH  13  14
HETATM   14  C7  UGS A1001      11.119   6.534  23.299  1.00  0.00    -0.382 A  
HETATM   15  C9  UGS A1001       9.341   8.109  22.944  1.00  0.00    -0.415 A  
HETATM   16  C16 UGS A1001      11.490   7.203  24.439  1.00  0.00    -0.431 A  
HETATM   17  C15 UGS A1001      10.804   8.362  24.870  1.00  0.00    -0.333 A  
HETATM   18  C10 UGS A1001       9.710   8.832  24.101  1.00  0.00    -0.325 A  
HETATM   19  C8  UGS A1001      10.031   6.996  22.566  1.00  0.00    -0.500 A  
HETATM   20  C11 UGS A1001       9.037  10.005  24.520  1.00  0.00    -0.223 A  
HETATM   21  C12 UGS A1001       9.433  10.668  25.648  1.00  0.00    -0.120 A  
HETATM   22  C13 UGS A1001      10.498  10.205  26.405  1.00  0.00    -0.161 A  
HETATM   23  C14 UGS A1001      11.173   9.075  26.039  1.00  0.00    -0.282 A  
ENDBRANCH  13  14
ENDBRANCH   3  13
TORSDOF 4
ENDMDL
