REMARK  8 active torsions:
REMARK  status: ('A' for Active; 'I' for Inactive)
REMARK    1  A    between atoms: N1_1  and  C5_5
REMARK    2  A    between atoms: C4_2  and  C3_14
REMARK    3  A    between atoms: C3_14  and  C13_15
REMARK    4  A    between atoms: C3_14  and  N_21
REMARK    5  A    between atoms: N_21  and  C18_24
REMARK    6  A    between atoms: C2_23  and  C1_33
REMARK    7  A    between atoms: C9_7  and  O2_12
REMARK    8  A    between atoms: C19_26  and  C21_29
ROOT
HETATM    1  N1  UHV A1001       7.943   2.367  22.587  1.00  0.00    -0.227 N
HETATM    2  C4  UHV A1001       8.299   1.424  21.683  1.00  0.00     0.227 C
HETATM    3  O1  UHV A1001       9.355   1.432  21.057  1.00  0.00    -0.277 OA
HETATM    4  H1  UHV A1001       7.013   2.281  22.996  1.00  0.00     0.136 HD
ENDROOT
BRANCH   1   5
HETATM    5  C5  UHV A1001       8.731   3.459  23.021  1.00  0.00     0.025 A
HETATM    6  C6  UHV A1001       9.795   3.216  23.911  1.00  0.00    -0.030 A
HETATM    7  C9  UHV A1001      10.291   5.578  23.878  1.00  0.00     0.076 A
HETATM    8  C8  UHV A1001      10.574   4.293  24.317  1.00  0.00     0.037 A
HETATM    9  C7  UHV A1001      10.055   1.849  24.493  1.00  0.00     0.045 C
HETATM   10  C12 UHV A1001       8.455   4.752  22.578  1.00  0.00     0.023 A
HETATM   11  C11 UHV A1001       9.239   5.809  23.007  1.00  0.00     0.034 A
BRANCH   7  12
HETATM   12  O2  UHV A1001      10.982   6.701  24.251  1.00  0.00    -0.348 OA
HETATM   13  C10 UHV A1001      12.073   6.572  25.169  1.00  0.00     0.202 C
ENDBRANCH   7  12
ENDBRANCH   1   5
BRANCH   2  14
HETATM   14  C3  UHV A1001       7.252   0.326  21.433  1.00  0.00     0.185 C
BRANCH  14  15
HETATM   15  C13 UHV A1001       6.558   0.502  20.093  1.00  0.00    -0.003 A
HETATM   16  N2  UHV A1001       6.679   0.442  17.686  1.00  0.00    -0.263 NA
HETATM   17  C16 UHV A1001       4.821   1.497  18.768  1.00  0.00     0.020 A
HETATM   18  C15 UHV A1001       5.522   1.111  17.640  1.00  0.00     0.111 A
HETATM   19  C17 UHV A1001       5.350   1.178  20.004  1.00  0.00     0.008 A
HETATM   20  C14 UHV A1001       7.168   0.148  18.897  1.00  0.00     0.116 A
ENDBRANCH  14  15
BRANCH  14  21
HETATM   21  N   UHV A1001       7.730  -1.052  21.716  1.00  0.00    -0.180 N
HETATM   22  O   UHV A1001       5.789  -2.084  21.188  1.00  0.00    -0.279 OA
HETATM   23  C2  UHV A1001       7.000  -2.179  21.314  1.00  0.00     0.210 C
BRANCH  21  24
HETATM   24  C18 UHV A1001       8.906  -1.231  22.520  1.00  0.00     0.147 A
HETATM   25  N3  UHV A1001       8.818  -1.308  23.871  1.00  0.00    -0.115 NA
HETATM   26  C19 UHV A1001      10.979  -1.374  23.229  1.00  0.00     0.094 A
HETATM   27  O3  UHV A1001      10.169  -1.398  24.307  1.00  0.00    -0.215 OA
HETATM   28  C20 UHV A1001      10.266  -1.282  22.099  1.00  0.00     0.074 A
BRANCH  26  29
HETATM   29  C21 UHV A1001      12.483  -1.425  23.420  1.00  0.00     0.011 C
HETATM   30  C24 UHV A1001      12.850  -2.474  24.470  1.00  0.00     0.017 C
HETATM   31  C22 UHV A1001      12.990  -0.067  23.903  1.00  0.00     0.017 C
HETATM   32  C23 UHV A1001      13.159  -1.777  22.094  1.00  0.00     0.017 C
ENDBRANCH  26  29
ENDBRANCH  21  24
BRANCH  23  33
HETATM   33  C1  UHV A1001       7.727  -3.480  21.091  1.00  0.00     0.089 C
HETATM   34  C   UHV A1001       7.054  -4.356  20.041  1.00  0.00     0.013 C
ENDBRANCH  23  33
ENDBRANCH  14  21
ENDBRANCH   2  14
TORSDOF 8
