MODEL        1
REMARK THIS MODEL IS IDENTICAL TO THE INPUT LIGAND AND NOT FROM DOCKING
REMARK 921   NORMALIZED FREE ENERGY PREDICTED BY IDOCK:    1.00 KCAL/MOL
REMARK 922        TOTAL FREE ENERGY PREDICTED BY IDOCK:    1.03 KCAL/MOL
REMARK 923 INTER-LIGAND FREE ENERGY PREDICTED BY IDOCK:    1.05 KCAL/MOL
REMARK 924 INTRA-LIGAND FREE ENERGY PREDICTED BY IDOCK:   -0.03 KCAL/MOL
REMARK 927      BINDING AFFINITY PREDICTED BY RF-SCORE:    0.00 PKD
ROOT
HETATM    1  C1  MYC A 407      22.639   3.013 -32.160  1.00  0.00    -0.446 A  
HETATM    2  C2  MYC A 407      21.747   3.515 -31.222  1.00  0.00    -0.141 A  
HETATM    3  O30 MYC A 407      20.584   4.092 -31.639  1.00  0.00    -0.114 OA 
HETATM    4  C3  MYC A 407      22.044   3.431 -29.862  1.00  0.00    -0.340 A  
HETATM    5  C4  MYC A 407      23.241   2.839 -29.446  1.00  0.00    -0.423 A  
HETATM    6  H30 MYC A 407      19.974   4.436 -30.997  1.00  0.00     0.000 HD 
HETATM    7  C5  MYC A 407      24.128   2.341 -30.391  1.00  0.00    -0.516 A  
HETATM    8  O12 MYC A 407      23.560   2.743 -28.115  1.00  0.00    -0.422 OA 
HETATM    9  C6  MYC A 407      23.827   2.430 -31.746  1.00  0.00    -0.398 A  
HETATM   10  C11 MYC A 407      22.701   3.189 -27.138  1.00  0.00    -0.059 C  
HETATM   11  C10 MYC A 407      21.424   3.844 -27.507  1.00  0.00    -0.202 C  
HETATM   12  O29 MYC A 407      24.692   1.950 -32.676  1.00  0.00    -0.516 OA 
HETATM   13  H27 MYC A 407      20.843   4.224 -25.592  1.00  0.00     0.000 HD 
HETATM   14  C9  MYC A 407      21.083   3.959 -28.848  1.00  0.00    -0.267 C  
HETATM   15  O27 MYC A 407      20.610   4.303 -26.509  1.00  0.00    -0.053 OA 
HETATM   16  H29 MYC A 407      25.506   1.551 -32.392  1.00  0.00     0.000 HD 
HETATM   17  O13 MYC A 407      19.997   4.493 -29.206  1.00  0.00    -0.478 OA 
ENDROOT
BRANCH  10  18
HETATM   18  C14 MYC A 407      23.077   3.142 -25.700  1.00  0.00     0.768 A  
HETATM   19  C15 MYC A 407      24.326   3.701 -25.445  1.00  0.00    -0.333 A  
HETATM   20  C16 MYC A 407      24.820   3.788 -24.153  1.00  0.00    -0.288 A  
HETATM   21  O25 MYC A 407      26.054   4.317 -23.903  1.00  0.00    -0.248 OA 
HETATM   22  C17 MYC A 407      24.059   3.319 -23.114  1.00  0.00    -0.339 A  
HETATM   23  C18 MYC A 407      22.802   2.771 -23.349  1.00  0.00     1.420 A  
HETATM   24  O24 MYC A 407      24.552   3.409 -21.855  1.00  0.00    -0.524 OA 
HETATM   25  H25 MYC A 407      26.393   4.377 -23.017  1.00  0.00     0.000 HD 
HETATM   26  H24 MYC A 407      25.410   3.783 -21.695  1.00  0.00     0.000 HD 
HETATM   27  C19 MYC A 407      22.270   2.675 -24.648  1.00  0.00     4.524 A  
HETATM   28  O23 MYC A 407      22.115   2.334 -22.269  1.00  0.00     0.452 OA 
HETATM   29  H23 MYC A 407      22.474   2.399 -21.392  1.00  0.00     0.000 HD 
ENDBRANCH  10  18
TORSDOF 1
ENDMDL
