REMARK  7 active torsions:
REMARK  status: ('A' for Active; 'I' for Inactive)
REMARK    1  A    between atoms: N1_1  and  C5_5
REMARK    2  A    between atoms: C4_2  and  C3_14
REMARK    3  A    between atoms: C3_14  and  N_15
REMARK    4  A    between atoms: C6_7  and  C7_12
REMARK    5  A    between atoms: C3_14  and  C14_29
REMARK    6  A    between atoms: N_15  and  C19_18
REMARK    7  A    between atoms: C2_17  and  C1_27
ROOT
HETATM    1  N1  UHY A 405       7.686   1.919  22.654  1.00  0.00    -0.226 N
HETATM    2  C4  UHY A 405       8.079   1.058  21.691  1.00  0.00     0.227 C
HETATM    3  O1  UHY A 405       9.081   1.215  21.000  1.00  0.00    -0.277 OA
HETATM    4  H1  UHY A 405       6.899   1.660  23.249  1.00  0.00     0.136 HD
ENDROOT
BRANCH   1   5
HETATM    5  C5  UHY A 405       8.324   3.173  22.874  1.00  0.00     0.028 A
HETATM    6  C10 UHY A 405       9.590   5.608  23.238  1.00  0.00     0.001 A
HETATM    7  C6  UHY A 405       9.552   3.212  23.557  1.00  0.00    -0.029 A
HETATM    8  C13 UHY A 405       6.358   4.311  21.730  1.00  0.00     0.045 C
HETATM    9  C11 UHY A 405       8.389   5.546  22.556  1.00  0.00     0.005 A
HETATM   10  C12 UHY A 405       7.720   4.335  22.377  1.00  0.00    -0.032 A
HETATM   11  C9  UHY A 405      10.168   4.450  23.733  1.00  0.00     0.005 A
BRANCH   7  12
HETATM   12  C7  UHY A 405      10.205   1.965  24.115  1.00  0.00     0.033 C
HETATM   13  C8  UHY A 405       9.523   1.423  25.361  1.00  0.00     0.009 C
ENDBRANCH   7  12
ENDBRANCH   1   5
BRANCH   2  14
HETATM   14  C3  UHY A 405       7.079  -0.066  21.375  1.00  0.00     0.184 C
BRANCH  14  15
HETATM   15  N   UHY A 405       7.475  -1.470  21.678  1.00  0.00    -0.197 N
HETATM   16  O   UHY A 405       5.548  -2.396  20.959  1.00  0.00    -0.279 OA
HETATM   17  C2  UHY A 405       6.695  -2.540  21.339  1.00  0.00     0.208 C
BRANCH  15  18
HETATM   18  C19 UHY A 405       8.729  -1.636  22.366  1.00  0.00     0.044 A
HETATM   19  N3  UHY A 405      11.127  -1.801  22.282  1.00  0.00    -0.258 NA
HETATM   20  C26 UHY A 405      13.044  -0.748  24.764  1.00  0.00     0.014 C
HETATM   21  C21 UHY A 405      11.147  -1.964  23.615  1.00  0.00     0.044 A
HETATM   22  C20 UHY A 405       9.938  -1.652  21.677  1.00  0.00     0.131 A
HETATM   23  C22 UHY A 405       9.984  -1.980  24.379  1.00  0.00     0.025 A
HETATM   24  C24 UHY A 405      12.548  -2.089  24.234  1.00  0.00     0.032 C
HETATM   25  C25 UHY A 405      12.611  -3.159  25.326  1.00  0.00     0.014 C
HETATM   26  C23 UHY A 405       8.765  -1.805  23.747  1.00  0.00     0.023 A
ENDBRANCH  15  18
BRANCH  17  27
HETATM   27  C1  UHY A 405       7.310  -3.921  21.385  1.00  0.00     0.089 C
HETATM   28  C   UHY A 405       6.996  -4.729  20.130  1.00  0.00     0.013 C
ENDBRANCH  17  27
ENDBRANCH  14  15
BRANCH  14  29
HETATM   29  C14 UHY A 405       6.391   0.172  20.042  1.00  0.00    -0.003 A
HETATM   30  C18 UHY A 405       5.188   0.861  19.977  1.00  0.00     0.008 A
HETATM   31  N2  UHY A 405       6.597   0.347  17.646  1.00  0.00    -0.263 NA
HETATM   32  C17 UHY A 405       4.709   1.307  18.760  1.00  0.00     0.020 A
HETATM   33  C16 UHY A 405       5.446   1.029  17.626  1.00  0.00     0.111 A
HETATM   34  C15 UHY A 405       7.038  -0.073  18.838  1.00  0.00     0.116 A
ENDBRANCH  14  29
ENDBRANCH   2  14
TORSDOF 7
