REMARK 15 active torsions:
REMARK  status: ('A' for Active; 'I' for Inactive)
REMARK    1  A    between atoms: C4_4  and  C7_7
REMARK    2  A    between atoms: C7_7  and  O8_8
REMARK    3  A    between atoms: O8_8  and  C9_9
REMARK    4  A    between atoms: N10_10  and  C11_13
REMARK    5  A    between atoms: C11_13  and  C12_14
REMARK    6  A    between atoms: C11_13  and  C30_42
REMARK    7  A    between atoms: C30_42  and  O32_44
REMARK    8  A    between atoms: N13_15  and  C14_18
REMARK    9  A    between atoms: C14_18  and  C34_19
REMARK   10  A    between atoms: C14_18  and  C15_26
REMARK   11  A    between atoms: C34_19  and  C18_20
REMARK   12  A    between atoms: N16_29  and  C17_30
REMARK   13  A    between atoms: C17_30  and  C32_31
REMARK   14  A    between atoms: C17_30  and  C19_34
REMARK   15  A    between atoms: C19_34  and  C20_35
ROOT
HETATM    1  C1  XM2 A 401      45.341   9.229 -18.106  1.00  0.00     0.000 A
HETATM    2  C2  XM2 A 401      45.309   7.915 -17.701  1.00  0.00     0.000 A
HETATM    3  C3  XM2 A 401      44.175   7.147 -17.933  1.00  0.00     0.006 A
HETATM    4  C4  XM2 A 401      43.071   7.688 -18.578  1.00  0.00    -0.021 A
HETATM    5  C5  XM2 A 401      43.107   9.002 -18.988  1.00  0.00     0.006 A
HETATM    6  C6  XM2 A 401      44.244   9.764 -18.760  1.00  0.00     0.000 A
ENDROOT
BRANCH   4   7
HETATM    7  C7  XM2 A 401      41.846   6.842 -18.835  1.00  0.00     0.207 C
BRANCH   7   8
HETATM    8  O8  XM2 A 401      41.370   6.300 -17.611  1.00  0.00    -0.298 OA
BRANCH   8   9
HETATM    9  C9  XM2 A 401      42.114   5.276 -16.906  1.00  0.00     0.339 C
HETATM   10  N10 XM2 A 401      41.742   4.966 -15.678  1.00  0.00    -0.220 N
HETATM   11  O29 XM2 A 401      43.044   4.739 -17.456  1.00  0.00    -0.245 OA
HETATM   12  H10 XM2 A 401      40.844   5.306 -15.333  1.00  0.00     0.134 HD
BRANCH  10  13
HETATM   13  C11 XM2 A 401      42.566   4.160 -14.806  1.00  0.00     0.174 C
BRANCH  13  14
HETATM   14  C12 XM2 A 401      41.919   2.831 -14.533  1.00  0.00     0.221 C
HETATM   15  N13 XM2 A 401      42.440   1.758 -15.129  1.00  0.00    -0.245 N
HETATM   16  H13 XM2 A 401      43.133   1.899 -15.864  1.00  0.00     0.131 HD
HETATM   17  O33 XM2 A 401      40.965   2.773 -13.796  1.00  0.00    -0.278 OA
BRANCH  15  18
HETATM   18  C14 XM2 A 401      42.068   0.396 -14.782  1.00  0.00     0.148 C
BRANCH  18  19
HETATM   19  C34 XM2 A 401      43.087  -0.583 -15.348  1.00  0.00     0.063 C
BRANCH  19  20
HETATM   20  C18 XM2 A 401      43.156  -0.605 -16.856  1.00  0.00    -0.045 A
HETATM   21  C23 XM2 A 401      42.231   0.069 -17.637  1.00  0.00     0.004 A
HETATM   22  C26 XM2 A 401      43.391  -0.727 -19.600  1.00  0.00     0.000 A
HETATM   23  C25 XM2 A 401      42.361   0.004 -19.016  1.00  0.00     0.000 A
HETATM   24  C28 XM2 A 401      44.314  -1.405 -18.829  1.00  0.00     0.000 A
HETATM   25  C29 XM2 A 401      44.177  -1.334 -17.457  1.00  0.00     0.004 A
ENDBRANCH  19  20
ENDBRANCH  18  19
BRANCH  18  26
HETATM   26  C15 XM2 A 401      42.075   0.145 -13.304  1.00  0.00     0.219 C
HETATM   27  O38 XM2 A 401      43.129   0.188 -12.701  1.00  0.00    -0.278 OA
HETATM   28  H16 XM2 A 401      40.063   0.153 -13.207  1.00  0.00     0.131 HD
HETATM   29  N16 XM2 A 401      40.912  -0.129 -12.718  1.00  0.00    -0.251 N
BRANCH  29  30
HETATM   30  C17 XM2 A 401      40.754  -0.803 -11.428  1.00  0.00     0.091 C
BRANCH  30  31
HETATM   31  C32 XM2 A 401      40.448  -2.300 -11.559  1.00  0.00     0.175 C
HETATM   32  O34 XM2 A 401      40.333  -2.992 -10.315  1.00  0.00    -0.393 OA
HETATM   33  H34 XM2 A 401      40.143  -3.919 -10.396  1.00  0.00     0.209 HD
ENDBRANCH  30  31
BRANCH  30  34
HETATM   34  C19 XM2 A 401      39.717  -0.015 -10.623  1.00  0.00     0.061 C
BRANCH  34  35
HETATM   35  C20 XM2 A 401      40.067   1.470 -10.696  1.00  0.00     0.014 C
HETATM   36  C22 XM2 A 401      40.852   2.886  -8.879  1.00  0.00     0.060 C
HETATM   37  C21 XM2 A 401      41.284   1.785  -9.840  1.00  0.00     0.020 C
HETATM   38  N23 XM2 A 401      39.445   3.104  -9.148  1.00  0.00    -0.231 N
HETATM   39  H23 XM2 A 401      38.872   3.778  -8.640  1.00  0.00     0.136 HD
HETATM   40  C24 XM2 A 401      38.979   2.331 -10.129  1.00  0.00     0.231 C
HETATM   41  O26 XM2 A 401      37.838   2.285 -10.517  1.00  0.00    -0.274 OA
ENDBRANCH  34  35
ENDBRANCH  30  34
ENDBRANCH  29  30
ENDBRANCH  18  26
ENDBRANCH  15  18
ENDBRANCH  13  14
BRANCH  13  42
HETATM   42  C30 XM2 A 401      42.767   4.921 -13.506  1.00  0.00     0.142 C
HETATM   43  C31 XM2 A 401      43.421   4.050 -12.452  1.00  0.00     0.040 C
BRANCH  42  44
HETATM   44  O32 XM2 A 401      43.571   6.072 -13.748  1.00  0.00    -0.369 OA
HETATM   45  C10 XM2 A 401      44.148   8.411 -13.518  1.00  0.00     0.041 C
HETATM   46  C8  XM2 A 401      43.034   7.368 -13.533  1.00  0.00     0.062 C
HETATM   47  C13 XM2 A 401      42.315   7.374 -12.201  1.00  0.00     0.041 C
HETATM   48  C16 XM2 A 401      42.061   7.657 -14.656  1.00  0.00     0.041 C
ENDBRANCH  42  44
ENDBRANCH  13  42
ENDBRANCH  10  13
ENDBRANCH   8   9
ENDBRANCH   7   8
ENDBRANCH   4   7
TORSDOF 15
