REMARK  2 active torsions:
REMARK  status: ('A' for Active; 'I' for Inactive)
REMARK    1  A    between atoms: N1_1  and  N_5
REMARK    2  A    between atoms: C2_3  and  C3_10
ROOT
HETATM    1  N1  U1D A 404       8.051  -4.149  21.810  1.00  0.00    -0.184 N
HETATM    2  H1  U1D A 404       8.815  -4.787  22.032  1.00  0.00     0.150 HD
HETATM    3  C2  U1D A 404       7.961  -2.979  22.465  1.00  0.00     0.252 C
HETATM    4  O1  U1D A 404       6.868  -2.502  22.772  1.00  0.00    -0.272 OA
ENDROOT
BRANCH   1   5
HETATM    5  N   U1D A 404       7.132  -4.507  20.842  1.00  0.00    -0.189 N
HETATM    6  O   U1D A 404       5.839  -3.823  19.127  1.00  0.00    -0.279 OA
HETATM    7  C1  U1D A 404       6.871  -3.711  19.795  1.00  0.00     0.211 C
HETATM    8  H   U1D A 404       6.641  -5.397  20.926  1.00  0.00     0.150 HD
HETATM    9  C   U1D A 404       7.934  -2.711  19.408  1.00  0.00     0.106 C
ENDBRANCH   1   5
BRANCH   3  10
HETATM   10  C3  U1D A 404       9.203  -2.226  22.739  1.00  0.00     0.072 A
HETATM   11  C4  U1D A 404      10.398  -2.191  21.956  1.00  0.00     0.024 A
HETATM   12  C5  U1D A 404      11.348  -1.297  22.503  1.00  0.00    -0.036 A
HETATM   13  C6  U1D A 404      12.701  -1.005  21.939  1.00  0.00     0.036 C
HETATM   14  C7  U1D A 404      13.560  -0.216  22.915  1.00  0.00     0.005 C
HETATM   15  C8  U1D A 404      12.806   0.885  23.566  1.00  0.00     0.005 C
HETATM   16  C9  U1D A 404      11.697   0.332  24.428  1.00  0.00     0.043 C
HETATM   17  C10 U1D A 404      10.920  -0.680  23.639  1.00  0.00    -0.006 A
HETATM   18  S   U1D A 404       9.335  -1.167  24.124  1.00  0.00    -0.089 SA
ENDBRANCH   3  10
TORSDOF 2
