MODEL        1
REMARK THIS MODEL IS IDENTICAL TO THE INPUT LIGAND AND NOT FROM DOCKING
REMARK 921   NORMALIZED FREE ENERGY PREDICTED BY IDOCK:   -2.73 KCAL/MOL
REMARK 922        TOTAL FREE ENERGY PREDICTED BY IDOCK:   -3.46 KCAL/MOL
REMARK 923 INTER-LIGAND FREE ENERGY PREDICTED BY IDOCK:   -3.21 KCAL/MOL
REMARK 924 INTRA-LIGAND FREE ENERGY PREDICTED BY IDOCK:   -0.25 KCAL/MOL
REMARK 927      BINDING AFFINITY PREDICTED BY RF-SCORE:    0.00 PKD
ROOT
HETATM    1  N1  LPZ A 404       6.166   2.788  29.807  1.00  0.00    -0.042 NA 
HETATM    2  C13 LPZ A 404       5.949   3.658  30.963  1.00  0.00    -0.034 C  
HETATM    3  C10 LPZ A 404       5.596   1.464  30.041  1.00  0.00    -0.056 C  
HETATM    4  C9  LPZ A 404       5.693   0.613  28.798  1.00  0.00    -0.064 C  
HETATM    5  N   LPZ A 404       7.063   0.533  28.286  1.00  0.00    -0.134 N  
HETATM    6  C12 LPZ A 404       7.823   1.788  28.296  1.00  0.00    -0.190 C  
HETATM    7  C8  LPZ A 404       7.577  -0.589  27.745  1.00  0.00     0.094 C  
HETATM    8  O1  LPZ A 404       7.336  -1.724  28.158  1.00  0.00     0.098 OA 
HETATM    9  C11 LPZ A 404       7.591   2.626  29.535  1.00  0.00    -0.106 C  
ENDROOT
BRANCH   7  10
HETATM   10  C7  LPZ A 404       8.426  -0.392  26.501  1.00  0.00    -0.200 C  
BRANCH  10  11
HETATM   11  O   LPZ A 404       8.949  -1.617  26.007  1.00  0.00    -0.207 OA 
BRANCH  11  12
HETATM   12  C4  LPZ A 404      10.073  -1.531  25.226  1.00  0.00    -0.253 A  
HETATM   13  C5  LPZ A 404      10.633  -2.675  24.679  1.00  0.00    -0.335 A  
HETATM   14  C6  LPZ A 404      11.769  -2.569  23.891  1.00  0.00    -0.408 A  
HETATM   15  C1  LPZ A 404      12.370  -1.350  23.634  1.00  0.00    -0.376 A  
HETATM   16  C   LPZ A 404      13.606  -1.251  22.778  1.00  0.00    -0.639 C  
HETATM   17  C2  LPZ A 404      11.800  -0.223  24.188  1.00  0.00    -0.343 A  
HETATM   18  C3  LPZ A 404      10.664  -0.298  24.974  1.00  0.00    -0.013 A  
ENDBRANCH  11  12
ENDBRANCH  10  11
ENDBRANCH   7  10
TORSDOF 3
ENDMDL
