REMARK 14 active torsions:
REMARK  status: ('A' for Active; 'I' for Inactive)
REMARK    1  A    between atoms: CBN_1  and  CBB_7
REMARK    2  A    between atoms: NAD_9  and  CAY_11
REMARK    3  A    between atoms: CAY_11  and  CBH_12
REMARK    4  A    between atoms: CAY_11  and  CAX_18
REMARK    5  A    between atoms: NAC_20  and  CAW_22
REMARK    6  A    between atoms: CAW_22  and  CAZ_23
REMARK    7  A    between atoms: CAW_22  and  CAV_27
REMARK    8  A    between atoms: CA_29  and  C_37
REMARK    9  A    between atoms: NAE_39  and  CAH_41
REMARK   10  A    between atoms: CAH_41  and  CAJ_42
REMARK   11  A    between atoms: CAH_41  and  CAI_45
REMARK   12  A    between atoms: CAI_45  and  CAM_48
REMARK   13  A    between atoms: CAJ_42  and  CAK_43
REMARK   14  A    between atoms: NAA_50  and  CAN_52
ROOT
HETATM    1  CBN SV6 A 402      11.868   8.331  26.508  1.00  0.00     0.140 A
HETATM    2  NAF SV6 A 402      12.255   7.423  27.437  1.00  0.00    -0.248 NA
HETATM    3  NAG SV6 A 402      12.140  10.195  28.020  1.00  0.00    -0.259 NA
HETATM    4  CBO SV6 A 402      12.601   7.915  28.648  1.00  0.00     0.131 A
HETATM    5  CBQ SV6 A 402      11.782   9.715  26.804  1.00  0.00     0.143 A
HETATM    6  CBP SV6 A 402      12.539   9.293  28.937  1.00  0.00     0.130 A
ENDROOT
BRANCH   1   7
HETATM    7  CBB SV6 A 402      11.438   7.822  25.163  1.00  0.00     0.252 C
HETATM    8  HAD SV6 A 402      11.454   5.847  25.773  1.00  0.00     0.132 HD
HETATM    9  NAD SV6 A 402      11.249   6.474  24.995  1.00  0.00    -0.241 N
HETATM   10  OBW SV6 A 402      11.228   8.612  24.257  1.00  0.00    -0.272 OA
BRANCH   9  11
HETATM   11  CAY SV6 A 402      10.764   5.907  23.739  1.00  0.00     0.147 C
BRANCH  11  12
HETATM   12  CBH SV6 A 402      11.899   5.320  22.824  1.00  0.00     0.015 C
HETATM   13  CBK SV6 A 402      14.770   4.850  22.063  1.00  0.00     0.000 C
HETATM   14  CBI SV6 A 402      12.734   4.229  23.514  1.00  0.00     0.005 C
HETATM   15  CBM SV6 A 402      12.849   6.403  22.281  1.00  0.00     0.005 C
HETATM   16  CBL SV6 A 402      13.874   5.824  21.322  1.00  0.00     0.000 C
HETATM   17  CBJ SV6 A 402      13.951   3.745  22.725  1.00  0.00     0.000 C
ENDBRANCH  11  12
BRANCH  11  18
HETATM   18  CAX SV6 A 402       9.938   4.720  24.290  1.00  0.00     0.219 C
HETATM   19  OBU SV6 A 402      10.132   4.285  25.449  1.00  0.00    -0.278 OA
HETATM   20  NAC SV6 A 402       8.985   4.126  23.483  1.00  0.00    -0.245 N
HETATM   21  HAC SV6 A 402       8.807   4.484  22.544  1.00  0.00     0.131 HD
BRANCH  20  22
HETATM   22  CAW SV6 A 402       8.244   2.990  23.988  1.00  0.00     0.149 C
BRANCH  22  23
HETATM   23  CAZ SV6 A 402       6.696   3.306  23.908  1.00  0.00    -0.014 C
HETATM   24  CBA SV6 A 402       6.235   3.720  22.505  1.00  0.00     0.012 C
HETATM   25  CBD SV6 A 402       6.343   4.479  24.846  1.00  0.00     0.012 C
HETATM   26  CBC SV6 A 402       5.909   2.077  24.375  1.00  0.00     0.012 C
ENDBRANCH  22  23
BRANCH  22  27
HETATM   27  CAV SV6 A 402       8.636   1.707  23.172  1.00  0.00     0.226 C
HETATM   28  N   SV6 A 402       9.272   0.611  23.750  1.00  0.00    -0.204 N
HETATM   29  CA  SV6 A 402       9.637  -0.628  23.052  1.00  0.00     0.087 C
HETATM   30  OBT SV6 A 402       8.432   1.665  21.958  1.00  0.00    -0.277 OA
HETATM   31  CB  SV6 A 402      10.651  -1.359  23.961  1.00  0.00    -0.024 C
HETATM   32  CG  SV6 A 402      10.819  -0.446  25.187  1.00  0.00    -0.050 C
HETATM   33  CD2 SV6 A 402      12.135   0.316  24.991  1.00  0.00     0.033 C
HETATM   34  CBE SV6 A 402      12.024  -1.439  23.303  1.00  0.00     0.037 C
HETATM   35  CD1 SV6 A 402       9.591   0.470  25.174  1.00  0.00     0.129 C
HETATM   36  CBF SV6 A 402      12.695  -0.102  23.629  1.00  0.00     0.009 C
BRANCH  29  37
HETATM   37  C   SV6 A 402       8.321  -1.418  22.991  1.00  0.00     0.243 C
HETATM   38  HAE SV6 A 402       8.272  -1.516  20.897  1.00  0.00     0.131 HD
HETATM   39  NAE SV6 A 402       7.781  -1.748  21.761  1.00  0.00    -0.247 N
HETATM   40  O   SV6 A 402       7.711  -1.694  24.017  1.00  0.00    -0.273 OA
BRANCH  39  41
HETATM   41  CAH SV6 A 402       6.492  -2.436  21.726  1.00  0.00     0.099 C
BRANCH  41  42
HETATM   42  CAJ SV6 A 402       5.453  -1.622  20.908  1.00  0.00     0.022 C
BRANCH  42  43
HETATM   43  CAK SV6 A 402       5.433  -0.118  21.211  1.00  0.00    -0.002 C
HETATM   44  CAL SV6 A 402       4.039   0.500  21.072  1.00  0.00     0.004 C
ENDBRANCH  42  43
ENDBRANCH  41  42
BRANCH  41  45
HETATM   45  CAI SV6 A 402       6.670  -3.856  21.101  1.00  0.00     0.214 C
HETATM   46  OBR SV6 A 402       7.605  -4.540  21.882  1.00  0.00    -0.381 OA
HETATM   47  HBR SV6 A 402       7.713  -5.404  21.502  1.00  0.00     0.210 HD
BRANCH  45  48
HETATM   48  CAM SV6 A 402       5.344  -4.638  21.118  1.00  0.00     0.231 C
HETATM   49  HAA SV6 A 402       5.691  -5.302  23.039  1.00  0.00     0.131 HD
HETATM   50  NAA SV6 A 402       5.019  -5.337  22.273  1.00  0.00    -0.253 N
HETATM   51  OBS SV6 A 402       4.606  -4.585  20.138  1.00  0.00    -0.277 OA
BRANCH  50  52
HETATM   52  CAN SV6 A 402       3.826  -6.103  22.488  1.00  0.00     0.061 C
HETATM   53  CAO SV6 A 402       3.397  -6.420  23.918  1.00  0.00     0.020 C
HETATM   54  CAP SV6 A 402       2.610  -5.414  23.110  1.00  0.00     0.020 C
ENDBRANCH  50  52
ENDBRANCH  45  48
ENDBRANCH  41  45
ENDBRANCH  39  41
ENDBRANCH  29  37
ENDBRANCH  22  27
ENDBRANCH  20  22
ENDBRANCH  11  18
ENDBRANCH   9  11
ENDBRANCH   1   7
TORSDOF 14
