REMARK  5 active torsions:
REMARK  status: ('A' for Active; 'I' for Inactive)
REMARK    1  A    between atoms: N1_1  and  C3_6
REMARK    2  A    between atoms: C3_6  and  C6_7
REMARK    3  A    between atoms: C3_6  and  C2_14
REMARK    4  A    between atoms: N2_10  and  C7_11
REMARK    5  A    between atoms: C7_11  and  C8_12
ROOT
HETATM    1  N1  T9M A 404       2.106  -5.482  23.041  1.00  0.00    -0.245 N
HETATM    2  C4  T9M A 404       0.967  -5.841  22.442  1.00  0.00     0.198 C
HETATM    3  H1  T9M A 404       2.158  -4.553  23.460  1.00  0.00     0.131 HD
HETATM    4  O2  T9M A 404       0.858  -6.900  21.825  1.00  0.00    -0.280 OA
HETATM    5  C5  T9M A 404      -0.175  -4.879  22.550  1.00  0.00     0.105 C
ENDROOT
BRANCH   1   6
HETATM    6  C3  T9M A 404       3.278  -6.342  23.130  1.00  0.00     0.172 C
BRANCH   6   7
HETATM    7  C6  T9M A 404       4.535  -5.495  22.901  1.00  0.00     0.221 C
HETATM    8  H2  T9M A 404       5.430  -6.988  21.844  1.00  0.00     0.131 HD
HETATM    9  O3  T9M A 404       4.583  -4.359  23.366  1.00  0.00    -0.278 OA
HETATM   10  N2  T9M A 404       5.533  -6.032  22.185  1.00  0.00    -0.253 N
BRANCH  10  11
HETATM   11  C7  T9M A 404       6.764  -5.303  21.873  1.00  0.00     0.115 C
BRANCH  11  12
HETATM   12  C8  T9M A 404       6.872  -4.854  20.458  1.00  0.00    -0.019 C
HETATM   13  C9  T9M A 404       6.053  -5.324  19.576  1.00  0.00     0.005 C
ENDBRANCH  11  12
ENDBRANCH  10  11
ENDBRANCH   6   7
BRANCH   6  14
HETATM   14  C2  T9M A 404       3.289  -7.059  24.495  1.00  0.00     0.137 C
HETATM   15  O1  T9M A 404       4.545  -7.716  24.677  1.00  0.00    -0.390 OA
HETATM   16  C1  T9M A 404       2.165  -8.061  24.650  1.00  0.00     0.040 C
HETATM   17  H1  T9M A 404       4.552  -8.158  25.518  1.00  0.00     0.210 HD
ENDBRANCH   6  14
ENDBRANCH   1   6
TORSDOF 5
