MODEL        1
REMARK THIS MODEL IS IDENTICAL TO THE INPUT LIGAND AND NOT FROM DOCKING
REMARK 921   NORMALIZED FREE ENERGY PREDICTED BY IDOCK:    3.11 KCAL/MOL
REMARK 922        TOTAL FREE ENERGY PREDICTED BY IDOCK:    3.96 KCAL/MOL
REMARK 923 INTER-LIGAND FREE ENERGY PREDICTED BY IDOCK:    4.02 KCAL/MOL
REMARK 924 INTRA-LIGAND FREE ENERGY PREDICTED BY IDOCK:   -0.06 KCAL/MOL
REMARK 927      BINDING AFFINITY PREDICTED BY RF-SCORE:    0.00 PKD
ROOT
HETATM    1  C07 JRY A 401     -11.876  17.360  65.601  1.00  0.00     4.385 C  
HETATM    2  N08 JRY A 401     -11.204  16.308  66.355  1.00  0.00     0.812 N  
HETATM    3  O15 JRY A 401     -11.338  17.944  64.721  1.00  0.00     0.260 OA 
HETATM    4  H08 JRY A 401     -10.250  16.036  66.120  1.00  0.00     0.000 HD 
ENDROOT
BRANCH   2   5
HETATM    5  C09 JRY A 401     -11.911  15.645  67.452  1.00  0.00     0.579 C  
BRANCH   5   6
HETATM    6  C10 JRY A 401     -11.004  15.546  68.685  1.00  0.00    -0.258 C  
BRANCH   6   7
HETATM    7  C11 JRY A 401     -11.699  15.770  70.038  1.00  0.00    -0.348 C  
BRANCH   7   8
HETATM    8  C12 JRY A 401     -12.665  14.669  70.456  1.00  0.00    -0.361 C  
BRANCH   8   9
HETATM    9  C13 JRY A 401     -12.996  14.683  71.948  1.00  0.00    -0.418 C  
HETATM   10  C14 JRY A 401     -14.494  14.792  72.230  1.00  0.00    -0.631 C  
ENDBRANCH   8   9
ENDBRANCH   7   8
ENDBRANCH   6   7
ENDBRANCH   5   6
ENDBRANCH   2   5
TORSDOF 5
ENDMDL
