REMARK 11 active torsions:
REMARK  status: ('A' for Active; 'I' for Inactive)
REMARK    1  A    between atoms: C28_1  and  N27_3
REMARK    2  A    between atoms: C28_1  and  N29_38
REMARK    3  A    between atoms: N27_3  and  C22_5
REMARK    4  A    between atoms: C22_5  and  C23_6
REMARK    5  A    between atoms: C22_5  and  C21_10
REMARK    6  A    between atoms: C13_16  and  C12_20
REMARK    7  A    between atoms: N11_22  and  C05_24
REMARK    8  A    between atoms: C05_24  and  C06_25
REMARK    9  A    between atoms: C05_24  and  C03_30
REMARK   10  A    between atoms: C06_25  and  C07_26
REMARK   11  A    between atoms: C03_30  and  C02_33
ROOT
HETATM    1  C28 U5G A 401     -19.356 -30.749  -0.889  1.00  0.00     0.274 C
HETATM    2  O34 U5G A 401     -20.035 -30.662  -1.929  1.00  0.00    -0.261 OA
ENDROOT
BRANCH   1   3
HETATM    3  N27 U5G A 401     -19.740 -30.122   0.240  1.00  0.00    -0.233 N
HETATM    4  H27 U5G A 401     -19.343 -30.415   1.133  1.00  0.00     0.132 HD
BRANCH   3   5
HETATM    5  C22 U5G A 401     -20.707 -29.038   0.214  1.00  0.00     0.151 C
BRANCH   5   6
HETATM    6  C23 U5G A 401     -22.005 -29.399   0.956  1.00  0.00    -0.014 C
HETATM    7  C24 U5G A 401     -21.719 -29.817   2.402  1.00  0.00     0.012 C
HETATM    8  C25 U5G A 401     -22.709 -30.558   0.246  1.00  0.00     0.012 C
HETATM    9  C26 U5G A 401     -22.948 -28.193   0.973  1.00  0.00     0.012 C
ENDBRANCH   5   6
BRANCH   5  10
HETATM   10  C21 U5G A 401     -20.024 -27.770   0.725  1.00  0.00     0.226 C
HETATM   11  O35 U5G A 401     -19.573 -27.696   1.864  1.00  0.00    -0.277 OA
HETATM   12  N20 U5G A 401     -19.905 -26.742  -0.132  1.00  0.00    -0.204 N
HETATM   13  C19 U5G A 401     -20.299 -26.752  -1.548  1.00  0.00     0.069 C
HETATM   14  C15 U5G A 401     -19.788 -25.430  -2.085  1.00  0.00    -0.025 C
HETATM   15  C14 U5G A 401     -19.211 -24.641  -0.927  1.00  0.00    -0.028 C
HETATM   16  C13 U5G A 401     -19.378 -25.460   0.339  1.00  0.00     0.178 C
HETATM   17  C16 U5G A 401     -18.314 -25.129  -2.041  1.00  0.00     0.015 C
HETATM   18  C17 U5G A 401     -17.774 -24.068  -2.976  1.00  0.00     0.020 C
HETATM   19  C18 U5G A 401     -17.341 -26.267  -1.819  1.00  0.00     0.020 C
BRANCH  16  20
HETATM   20  C12 U5G A 401     -20.376 -24.783   1.269  1.00  0.00     0.223 C
HETATM   21  O36 U5G A 401     -21.529 -24.563   0.899  1.00  0.00    -0.277 OA
HETATM   22  N11 U5G A 401     -19.925 -24.473   2.488  1.00  0.00    -0.251 N
HETATM   23  H11 U5G A 401     -18.952 -24.670   2.721  1.00  0.00     0.131 HD
BRANCH  22  24
HETATM   24  C05 U5G A 401     -20.792 -23.856   3.503  1.00  0.00     0.099 C
BRANCH  24  25
HETATM   25  C06 U5G A 401     -20.951 -24.801   4.691  1.00  0.00     0.025 C
BRANCH  25  26
HETATM   26  C07 U5G A 401     -21.774 -26.020   4.307  1.00  0.00    -0.009 C
HETATM   27  C09 U5G A 401     -23.487 -27.200   4.595  1.00  0.00     0.001 C
HETATM   28  C08 U5G A 401     -23.262 -25.812   4.000  1.00  0.00     0.003 C
HETATM   29  C10 U5G A 401     -22.227 -26.966   5.425  1.00  0.00     0.003 C
ENDBRANCH  25  26
ENDBRANCH  24  25
BRANCH  24  30
HETATM   30  C03 U5G A 401     -20.300 -22.457   3.925  1.00  0.00     0.213 C
HETATM   31  H04 U5G A 401     -19.770 -20.797   3.030  1.00  0.00     0.210 HD
HETATM   32  O04 U5G A 401     -20.073 -21.659   2.770  1.00  0.00    -0.381 OA
BRANCH  30  33
HETATM   33  C02 U5G A 401     -21.307 -21.780   4.846  1.00  0.00     0.228 C
HETATM   34  N37 U5G A 401     -22.263 -20.798   4.300  1.00  0.00    -0.270 N
HETATM   35 2H37 U5G A 401     -22.772 -21.236   3.532  1.00  0.00     0.127 HD
HETATM   36 1H37 U5G A 401     -22.937 -20.345   4.917  1.00  0.00     0.127 HD
HETATM   37  O01 U5G A 401     -21.316 -22.033   6.031  1.00  0.00    -0.277 OA
ENDBRANCH  30  33
ENDBRANCH  24  30
ENDBRANCH  22  24
ENDBRANCH  16  20
ENDBRANCH   5  10
ENDBRANCH   3   5
ENDBRANCH   1   3
BRANCH   1  38
HETATM   38  N29 U5G A 401     -18.211 -31.461  -0.784  1.00  0.00    -0.240 N
HETATM   39  C30 U5G A 401     -17.522 -32.181  -1.875  1.00  0.00     0.019 C
HETATM   40  C33 U5G A 401     -17.286 -31.224  -3.036  1.00  0.00     0.027 C
HETATM   41  H29 U5G A 401     -17.781 -31.505   0.140  1.00  0.00     0.132 HD
HETATM   42  C31 U5G A 401     -16.189 -32.698  -1.352  1.00  0.00     0.027 C
HETATM   43  C32 U5G A 401     -18.388 -33.350  -2.323  1.00  0.00     0.027 C
ENDBRANCH   1  38
TORSDOF 11
