MODEL        1
REMARK THIS MODEL IS IDENTICAL TO THE INPUT LIGAND AND NOT FROM DOCKING
REMARK 921   NORMALIZED FREE ENERGY PREDICTED BY IDOCK:    2.58 KCAL/MOL
REMARK 922        TOTAL FREE ENERGY PREDICTED BY IDOCK:    2.79 KCAL/MOL
REMARK 923 INTER-LIGAND FREE ENERGY PREDICTED BY IDOCK:    3.03 KCAL/MOL
REMARK 924 INTRA-LIGAND FREE ENERGY PREDICTED BY IDOCK:   -0.24 KCAL/MOL
REMARK 927      BINDING AFFINITY PREDICTED BY RF-SCORE:    0.00 PKD
ROOT
HETATM    1  N1  UPD A1001       6.726  -0.898  26.150  1.00  0.00    -0.114 N  
HETATM    2  C   UPD A1001       5.966  -1.459  25.190  1.00  0.00    -0.172 C  
HETATM    3  O   UPD A1001       4.742  -1.378  25.154  1.00  0.00    -0.212 OA 
HETATM    4  H1  UPD A1001       7.730  -1.070  26.090  1.00  0.00     0.000 HD 
ENDROOT
BRANCH   1   5
HETATM    5  C8  UPD A1001       6.291  -0.099  27.230  1.00  0.00    -0.116 A  
HETATM    6  C9  UPD A1001       5.493  -0.604  28.247  1.00  0.00    -0.053 A  
HETATM    7  C13 UPD A1001       6.756   1.206  27.364  1.00  0.00    -0.137 A  
HETATM    8  N2  UPD A1001       6.519   1.981  28.430  1.00  0.00    -0.127 NA 
HETATM    9  C10 UPD A1001       5.231   0.166  29.365  1.00  0.00    -0.139 A  
HETATM   10  C11 UPD A1001       5.789   1.451  29.406  1.00  0.00    -0.077 A  
BRANCH  10  11
HETATM   11  O2  UPD A1001       5.574   2.130  30.553  1.00  0.00    -0.059 OA 
HETATM   12  C12 UPD A1001       6.117   3.449  30.671  1.00  0.00    -0.070 C  
ENDBRANCH  10  11
ENDBRANCH   1   5
BRANCH   2  13
HETATM   13  C1  UPD A1001       6.745  -2.200  24.140  1.00  0.00    -0.220 C  
HETATM   14  C7  UPD A1001       7.025  -1.302  22.926  1.00  0.00    -0.241 C  
HETATM   15  C5  UPD A1001       7.041  -2.705  19.110  1.00  0.00     4.119 C  
HETATM   16  N   UPD A1001       7.071  -3.310  21.478  1.00  0.00     0.041 N  
HETATM   17  C4  UPD A1001       6.653  -3.641  20.238  1.00  0.00     1.732 C  
HETATM   18  C6  UPD A1001       7.790  -2.084  21.852  1.00  0.00    -0.214 C  
HETATM   19  C2  UPD A1001       6.007  -3.471  23.697  1.00  0.00    -0.256 C  
HETATM   20  C3  UPD A1001       6.820  -4.192  22.625  1.00  0.00    -0.285 C  
HETATM   21  O1  UPD A1001       5.970  -4.633  20.022  1.00  0.00    -0.369 OA 
ENDBRANCH   2  13
TORSDOF 3
ENDMDL
