MODEL        1
REMARK THIS MODEL IS IDENTICAL TO THE INPUT LIGAND AND NOT FROM DOCKING
REMARK 921   NORMALIZED FREE ENERGY PREDICTED BY IDOCK:   -2.90 KCAL/MOL
REMARK 922        TOTAL FREE ENERGY PREDICTED BY IDOCK:   -5.38 KCAL/MOL
REMARK 923 INTER-LIGAND FREE ENERGY PREDICTED BY IDOCK:   -4.60 KCAL/MOL
REMARK 924 INTRA-LIGAND FREE ENERGY PREDICTED BY IDOCK:   -0.78 KCAL/MOL
REMARK 927      BINDING AFFINITY PREDICTED BY RF-SCORE:    0.00 PKD
ROOT
HETATM    1  C02 QYS A 401      10.655  30.154  23.992  1.00  0.00    -0.192 C  
HETATM    2  C04 QYS A 401       9.358  29.459  23.448  1.00  0.00    -0.239 C  
HETATM    3  F03 QYS A 401      10.425  30.759  25.194  1.00  0.00    -0.131 F  
HETATM    4  F01 QYS A 401      10.975  31.209  23.207  1.00  0.00    -0.255 F  
HETATM    5  C05 QYS A 401       9.109  28.075  24.025  1.00  0.00    -0.188 C  
HETATM    6  C06 QYS A 401      10.325  27.117  24.014  1.00  0.00    -0.164 C  
HETATM    7  C31 QYS A 401      11.877  29.222  24.125  1.00  0.00    -0.401 C  
HETATM    8  C30 QYS A 401      11.582  27.781  24.564  1.00  0.00    -0.231 C  
ENDROOT
BRANCH   6   9
HETATM    9  C07 QYS A 401      10.035  25.811  24.817  1.00  0.00    -0.242 C  
BRANCH   9  10
HETATM   10  O08 QYS A 401      11.169  25.347  25.570  1.00  0.00    -0.496 OA 
BRANCH  10  11
HETATM   11  C09 QYS A 401      11.408  24.001  25.646  1.00  0.00    -0.370 C  
HETATM   12  O29 QYS A 401      10.753  23.234  24.926  1.00  0.00    -0.580 OA 
HETATM   13  N10 QYS A 401      12.332  23.532  26.492  1.00  0.00    -0.514 N  
HETATM   14  H10 QYS A 401      12.970  24.181  26.953  1.00  0.00     0.000 HD 
BRANCH  13  15
HETATM   15  C11 QYS A 401      12.440  22.085  26.767  1.00  0.00    -0.351 C  
BRANCH  15  16
HETATM   16  C12 QYS A 401      13.590  21.827  27.785  1.00  0.00    -0.464 C  
HETATM   17  C15 QYS A 401      15.321  21.714  25.972  1.00  0.00    -0.619 C  
HETATM   18  C14 QYS A 401      16.072  22.070  28.371  1.00  0.00    -0.599 C  
HETATM   19  C13 QYS A 401      14.951  22.333  27.321  1.00  0.00    -0.435 C  
ENDBRANCH  15  16
BRANCH  15  20
HETATM   20  C16 QYS A 401      11.126  21.566  27.314  1.00  0.00    -0.314 C  
HETATM   21  N17 QYS A 401      10.536  20.420  26.876  1.00  0.00    -0.046 N  
HETATM   22  O28 QYS A 401      10.543  22.261  28.153  1.00  0.00    -0.223 OA 
HETATM   23  H17 QYS A 401      11.007  19.886  26.145  1.00  0.00     0.000 HD 
BRANCH  21  24
HETATM   24  C18 QYS A 401       9.317  19.931  27.372  1.00  0.00     0.727 C  
BRANCH  24  25
HETATM   25  C26 QYS A 401       9.568  18.547  28.025  1.00  0.00     3.955 C  
HETATM   26  H27 QYS A 401       8.502  17.191  28.898  1.00  0.00     0.000 HD 
HETATM   27  O27 QYS A 401       8.348  18.039  28.498  1.00  0.00     0.131 OA 
ENDBRANCH  24  25
BRANCH  24  28
HETATM   28  C19 QYS A 401       8.223  19.796  26.192  1.00  0.00    -0.069 C  
BRANCH  28  29
HETATM   29  C20 QYS A 401       7.777  21.146  25.652  1.00  0.00    -0.390 C  
HETATM   30  C21 QYS A 401       6.832  21.040  24.469  1.00  0.00    -0.520 C  
HETATM   31  O25 QYS A 401       7.086  20.253  23.535  1.00  0.00    -0.668 OA 
HETATM   32  N22 QYS A 401       5.784  21.883  24.588  1.00  0.00    -0.279 NA 
HETATM   33  C23 QYS A 401       5.849  22.685  25.853  1.00  0.00    -0.268 C  
HETATM   34  C24 QYS A 401       6.982  21.976  26.669  1.00  0.00    -0.165 C  
ENDBRANCH  28  29
ENDBRANCH  24  28
ENDBRANCH  21  24
ENDBRANCH  15  20
ENDBRANCH  13  15
ENDBRANCH  10  11
ENDBRANCH   9  10
ENDBRANCH   6   9
TORSDOF 10
ENDMDL
