REMARK  2 active torsions:
REMARK  status: ('A' for Active; 'I' for Inactive)
REMARK    1  A    between atoms: N_7  and  C6_10
REMARK    2  A    between atoms: C6_10  and  C5_11
ROOT
HETATM    1  N1  T2G A 404       6.768  -2.562  20.791  1.00  0.00    -0.242 N
HETATM    2  C11 T2G A 404       6.462  -3.201  19.639  1.00  0.00     0.200 C
HETATM    3  C8  T2G A 404       6.345  -3.060  22.097  1.00  0.00     0.108 C
HETATM    4  C7  T2G A 404       7.562  -3.392  22.927  1.00  0.00     0.100 C
HETATM    5  C12 T2G A 404       7.076  -2.685  18.367  1.00  0.00     0.105 C
HETATM    6  O   T2G A 404       5.757  -4.204  19.612  1.00  0.00    -0.280 OA
HETATM    7  N   T2G A 404       8.425  -2.220  23.083  1.00  0.00    -0.296 NA
HETATM    8  C9  T2G A 404       7.585  -1.361  20.939  1.00  0.00     0.108 C
HETATM    9  C10 T2G A 404       8.803  -1.681  21.772  1.00  0.00     0.100 C
ENDROOT
BRANCH   7  10
HETATM   10  C6  T2G A 404       9.612  -2.559  23.872  1.00  0.00     0.119 C
BRANCH  10  11
HETATM   11  C5  T2G A 404      10.701  -1.530  23.721  1.00  0.00    -0.033 A
HETATM   12  C4  T2G A 404      11.876  -1.826  23.050  1.00  0.00     0.005 A
HETATM   13  C3  T2G A 404      12.853  -0.860  22.896  1.00  0.00     0.001 A
HETATM   14  C2  T2G A 404      12.650   0.412  23.401  1.00  0.00     0.003 A
HETATM   15  C1  T2G A 404      11.474   0.746  24.056  1.00  0.00    -0.050 A
HETATM   16  C   T2G A 404      11.246   2.131  24.590  1.00  0.00     0.044 C
HETATM   17  C13 T2G A 404      10.508  -0.238  24.198  1.00  0.00     0.008 A
ENDBRANCH  10  11
ENDBRANCH   7  10
TORSDOF 2
