REMARK  2 active torsions:
REMARK  status: ('A' for Active; 'I' for Inactive)
REMARK    1  A    between atoms: C6_2  and  N_10
REMARK    2  A    between atoms: C1_5  and  O_15
ROOT
HETATM    1  N1  T7A A 404       7.168  -4.606  23.460  1.00  0.00    -0.225 NA
HETATM    2  C6  T7A A 404       6.643  -4.598  22.268  1.00  0.00     0.153 A
HETATM    3  S   T7A A 404       5.223  -5.587  22.022  1.00  0.00    -0.055 SA
HETATM    4  C9  T7A A 404       6.337  -5.299  24.325  1.00  0.00     0.110 A
HETATM    5  C1  T7A A 404       6.520  -5.433  25.699  1.00  0.00     0.102 A
HETATM    6  C5  T7A A 404       5.218  -5.907  23.736  1.00  0.00     0.043 A
HETATM    7  C2  T7A A 404       5.604  -6.162  26.454  1.00  0.00     0.035 A
HETATM    8  C4  T7A A 404       4.294  -6.635  24.476  1.00  0.00     0.017 A
HETATM    9  C3  T7A A 404       4.501  -6.754  25.833  1.00  0.00     0.004 A
ENDROOT
BRANCH   2  10
HETATM   10  N   T7A A 404       7.203  -3.836  21.263  1.00  0.00    -0.207 N
HETATM   11  O1  T7A A 404       5.678  -4.257  19.644  1.00  0.00    -0.279 OA
HETATM   12  H   T7A A 404       8.064  -3.335  21.482  1.00  0.00     0.138 HD
HETATM   13  C7  T7A A 404       6.702  -3.695  19.997  1.00  0.00     0.203 C
HETATM   14  C8  T7A A 404       7.506  -2.803  19.082  1.00  0.00     0.105 C
ENDBRANCH   2  10
BRANCH   5  15
HETATM   15  O   T7A A 404       7.628  -4.819  26.194  1.00  0.00    -0.346 OA
HETATM   16  C   T7A A 404       7.792  -4.746  27.610  1.00  0.00     0.202 C
ENDBRANCH   5  15
TORSDOF 2
