REMARK 10 active torsions:
REMARK  status: ('A' for Active; 'I' for Inactive)
REMARK    1  A    between atoms: C7_1  and  O8_2
REMARK    2  A    between atoms: C7_1  and  C1_27
REMARK    3  A    between atoms: O8_2  and  C9_3
REMARK    4  A    between atoms: N11_4  and  C12_7
REMARK    5  A    between atoms: C12_7  and  C13_8
REMARK    6  A    between atoms: C12_7  and  C17_12
REMARK    7  A    between atoms: N19_14  and  C20_16
REMARK    8  A    between atoms: C20_16  and  C21_17
REMARK    9  A    between atoms: C20_16  and  C24_20
REMARK   10  A    between atoms: C24_20  and  C25_21
ROOT
HETATM    1  C7  UED A 401     -13.735 -10.321  -0.082  1.00  0.00     0.207 C
ENDROOT
BRANCH   1   2
HETATM    2  O8  UED A 401     -14.601 -11.267  -0.658  1.00  0.00    -0.298 OA
BRANCH   2   3
HETATM    3  C9  UED A 401     -14.890 -12.422   0.105  1.00  0.00     0.339 C
HETATM    4  N11 UED A 401     -15.363 -13.602  -0.602  1.00  0.00    -0.222 N
HETATM    5  H11 UED A 401     -15.576 -13.531  -1.597  1.00  0.00     0.133 HD
HETATM    6  O10 UED A 401     -14.768 -12.442   1.292  1.00  0.00    -0.245 OA
BRANCH   4   7
HETATM    7  C12 UED A 401     -15.540 -14.869   0.064  1.00  0.00     0.146 C
BRANCH   7   8
HETATM    8  C13 UED A 401     -16.124 -15.842  -0.951  1.00  0.00     0.031 C
HETATM    9  C16 UED A 401     -18.249 -16.581  -2.115  1.00  0.00     0.007 C
HETATM   10  C14 UED A 401     -17.639 -15.647  -1.058  1.00  0.00    -0.015 C
HETATM   11  C15 UED A 401     -18.277 -15.956   0.289  1.00  0.00     0.007 C
ENDBRANCH   7   8
BRANCH   7  12
HETATM   12  C17 UED A 401     -14.164 -15.361   0.493  1.00  0.00     0.218 C
HETATM   13  H19 UED A 401     -14.637 -15.796   2.556  1.00  0.00     0.131 HD
HETATM   14  N19 UED A 401     -13.898 -15.811   1.853  1.00  0.00    -0.252 N
HETATM   15  O18 UED A 401     -13.296 -15.370  -0.305  1.00  0.00    -0.278 OA
BRANCH  14  16
HETATM   16  C20 UED A 401     -12.563 -16.282   2.197  1.00  0.00     0.087 C
BRANCH  16  17
HETATM   17  C21 UED A 401     -12.660 -17.754   2.630  1.00  0.00     0.174 C
HETATM   18  H22 UED A 401     -11.472 -19.302   2.874  1.00  0.00     0.209 HD
HETATM   19  O22 UED A 401     -11.412 -18.392   2.606  1.00  0.00    -0.393 OA
ENDBRANCH  16  17
BRANCH  16  20
HETATM   20  C24 UED A 401     -12.028 -15.449   3.356  1.00  0.00     0.034 C
BRANCH  20  21
HETATM   21  C25 UED A 401     -11.672 -14.045   2.842  1.00  0.00     0.082 C
HETATM   22  C26 UED A 401     -10.515 -14.141   1.841  1.00  0.00     0.036 C
HETATM   23  C27 UED A 401      -9.553 -12.987   2.223  1.00  0.00     0.146 C
HETATM   24  N28 UED A 401      -9.921 -12.589   3.555  1.00  0.00    -0.250 NA
HETATM   25  C29 UED A 401     -11.210 -13.231   3.949  1.00  0.00     0.245 C
HETATM   26  O30 UED A 401     -11.782 -13.096   4.995  1.00  0.00    -0.271 OA
ENDBRANCH  20  21
ENDBRANCH  16  20
ENDBRANCH  14  16
ENDBRANCH   7  12
ENDBRANCH   4   7
ENDBRANCH   2   3
ENDBRANCH   1   2
BRANCH   1  27
HETATM   27  C1  UED A 401     -12.246 -10.633  -0.363  1.00  0.00    -0.021 A
HETATM   28  C2  UED A 401     -11.853 -11.774  -1.068  1.00  0.00     0.006 A
HETATM   29  C6  UED A 401     -11.263  -9.754   0.106  1.00  0.00     0.006 A
HETATM   30  C5  UED A 401      -9.908  -9.992  -0.123  1.00  0.00     0.000 A
HETATM   31  C3  UED A 401     -10.498 -12.017  -1.294  1.00  0.00     0.000 A
HETATM   32  C4  UED A 401      -9.527 -11.130  -0.825  1.00  0.00     0.000 A
ENDBRANCH   1  27
TORSDOF 10
