MODEL        1
REMARK THIS MODEL IS IDENTICAL TO THE INPUT LIGAND AND NOT FROM DOCKING
REMARK 921   NORMALIZED FREE ENERGY PREDICTED BY IDOCK:    2.47 KCAL/MOL
REMARK 922        TOTAL FREE ENERGY PREDICTED BY IDOCK:    2.86 KCAL/MOL
REMARK 923 INTER-LIGAND FREE ENERGY PREDICTED BY IDOCK:    2.62 KCAL/MOL
REMARK 924 INTRA-LIGAND FREE ENERGY PREDICTED BY IDOCK:    0.24 KCAL/MOL
REMARK 927      BINDING AFFINITY PREDICTED BY RF-SCORE:    0.00 PKD
ROOT
HETATM    1  N1  U0Y A 404       7.357  -3.416  21.672  1.00  0.00    -0.366 N  
HETATM    2  C10 U0Y A 404       6.219  -3.869  22.463  1.00  0.00    -0.282 C  
HETATM    3  C12 U0Y A 404       7.385  -3.427  20.325  1.00  0.00     0.829 C  
HETATM    4  C13 U0Y A 404       8.665  -2.958  19.688  1.00  0.00     4.567 C  
HETATM    5  C11 U0Y A 404       5.699  -2.708  23.278  1.00  0.00    -0.205 C  
HETATM    6  O1  U0Y A 404       6.429  -3.776  19.644  1.00  0.00    -0.200 OA 
HETATM    7  N   U0Y A 404       6.761  -2.177  24.135  1.00  0.00    -0.198 N  
HETATM    8  C7  U0Y A 404       6.647  -2.081  25.473  1.00  0.00    -0.164 C  
HETATM    9  C8  U0Y A 404       7.964  -1.785  23.399  1.00  0.00    -0.232 C  
HETATM   10  C9  U0Y A 404       8.448  -2.912  22.511  1.00  0.00    -0.289 C  
HETATM   11  O   U0Y A 404       7.614  -1.884  26.202  1.00  0.00    -0.211 OA 
ENDROOT
BRANCH   8  12
HETATM   12  C4  U0Y A 404       5.279  -2.203  26.083  1.00  0.00    -0.142 A  
HETATM   13  C5  U0Y A 404       4.248  -1.407  25.618  1.00  0.00    -0.102 A  
HETATM   14  C6  U0Y A 404       2.979  -1.519  26.158  1.00  0.00    -0.048 A  
HETATM   15  C1  U0Y A 404       2.707  -2.424  27.170  1.00  0.00    -0.059 A  
HETATM   16  C2  U0Y A 404       3.745  -3.220  27.624  1.00  0.00    -0.106 A  
HETATM   17  C   U0Y A 404       1.325  -2.534  27.751  1.00  0.00    -0.034 C  
HETATM   18  C3  U0Y A 404       5.018  -3.118  27.089  1.00  0.00    -0.140 A  
ENDBRANCH   8  12
TORSDOF 1
ENDMDL
