REMARK  3 active torsions:
REMARK  status: ('A' for Active; 'I' for Inactive)
REMARK    1  A    between atoms: N13_8  and  C16_18
REMARK    2  A    between atoms: C16_18  and  C17_19
REMARK    3  A    between atoms: C17_19  and  C18_20
ROOT
HETATM    1  C12 R6Q A 401       3.782   1.285 -22.753  1.00  0.00     0.087 C
HETATM    2  C11 R6Q A 401       2.460   1.572 -23.457  1.00  0.00     0.056 C
HETATM    3  C10 R6Q A 401       1.533   2.584 -22.788  1.00  0.00     0.109 C
HETATM    4  C15 R6Q A 401       2.192   3.536 -21.766  1.00  0.00     0.056 C
HETATM    5  C06 R6Q A 401       0.636   3.310 -23.783  1.00  0.00     0.003 A
HETATM    6  C01 R6Q A 401       1.026   4.439 -24.507  1.00  0.00     0.008 A
HETATM    7  C14 R6Q A 401       3.556   3.179 -21.226  1.00  0.00     0.087 C
HETATM    8  N13 R6Q A 401       4.425   2.526 -22.227  1.00  0.00    -0.302 NA
HETATM    9  C02 R6Q A 401       0.161   5.063 -25.393  1.00  0.00     0.000 A
HETATM   10  C03 R6Q A 401      -1.129   4.582 -25.592  1.00  0.00     0.002 A
HETATM   11  H07 R6Q A 401      -1.918   1.180 -23.672  1.00  0.00     0.139 HD
HETATM   12  C04 R6Q A 401      -1.558   3.466 -24.899  1.00  0.00     0.020 A
HETATM   13  C08 R6Q A 401      -0.508   1.348 -22.124  1.00  0.00     0.343 C
HETATM   14  C05 R6Q A 401      -0.673   2.846 -24.007  1.00  0.00     0.030 A
HETATM   15  O09 R6Q A 401       0.789   1.678 -21.936  1.00  0.00    -0.291 OA
HETATM   16  O28 R6Q A 401      -1.060   0.743 -21.223  1.00  0.00    -0.245 OA
HETATM   17  N07 R6Q A 401      -1.132   1.722 -23.312  1.00  0.00    -0.203 N
ENDROOT
BRANCH   8  18
HETATM   18  C16 R6Q A 401       5.740   2.228 -21.620  1.00  0.00     0.089 C
BRANCH  18  19
HETATM   19  C17 R6Q A 401       6.699   3.265 -22.167  1.00  0.00     0.050 C
BRANCH  19  20
HETATM   20  C18 R6Q A 401       7.771   3.457 -21.170  1.00  0.00    -0.046 A
HETATM   21  C21 R6Q A 401       9.803   3.788 -19.359  1.00  0.00     0.055 A
HETATM   22  C19 R6Q A 401       8.949   2.733 -21.311  1.00  0.00     0.004 A
HETATM   23  C20 R6Q A 401       9.974   2.895 -20.401  1.00  0.00     0.012 A
HETATM   24  C22 R6Q A 401       8.631   4.522 -19.201  1.00  0.00     0.012 A
HETATM   25  C24 R6Q A 401      10.891   3.981 -18.371  1.00  0.00     0.417 C
HETATM   26  F27 R6Q A 401      11.921   3.119 -18.530  1.00  0.00    -0.166 F
HETATM   27  C23 R6Q A 401       7.607   4.356 -20.118  1.00  0.00     0.004 A
HETATM   28  F25 R6Q A 401      11.467   5.190 -18.444  1.00  0.00    -0.166 F
HETATM   29  F26 R6Q A 401      10.478   3.836 -17.114  1.00  0.00    -0.166 F
ENDBRANCH  19  20
ENDBRANCH  18  19
ENDBRANCH   8  18
TORSDOF 3
