REMARK  2 active torsions:
REMARK  status: ('A' for Active; 'I' for Inactive)
REMARK    1  A    between atoms: N1_1  and  S_10
REMARK    2  A    between atoms: S_10  and  C6_13
ROOT
HETATM    1  N1  T4D A 404       7.046  -2.426  23.726  1.00  0.00    -0.880 N
HETATM    2  C3  T4D A 404       7.312  -1.514  22.606  1.00  0.00     0.218 C
HETATM    3  C5  T4D A 404       6.636  -4.293  22.294  1.00  0.00     0.120 C
HETATM    4  O   T4D A 404       5.629  -4.619  19.740  1.00  0.00    -0.280 OA
HETATM    5  C1  T4D A 404       6.436  -3.720  19.927  1.00  0.00     0.200 C
HETATM    6  C4  T4D A 404       6.041  -3.443  23.384  1.00  0.00     0.218 C
HETATM    7  C2  T4D A 404       7.875  -2.346  21.481  1.00  0.00     0.120 C
HETATM    8  N   T4D A 404       6.968  -3.452  21.141  1.00  0.00    -0.241 N
HETATM    9  C   T4D A 404       6.878  -2.883  18.765  1.00  0.00     0.105 C
ENDROOT
BRANCH   1  10
HETATM   10  S   T4D A 404       7.127  -1.892  25.274  1.00  0.00     2.572 S
HETATM   11  O2  T4D A 404       5.788  -1.674  25.723  1.00  0.00    -0.924 OA
HETATM   12  O1  T4D A 404       8.075  -0.824  25.308  1.00  0.00    -0.924 OA
BRANCH  10  13
HETATM   13  C6  T4D A 404       7.802  -3.261  26.173  1.00  0.00    -0.566 A
HETATM   14  C10 T4D A 404       9.560  -4.890  26.542  1.00  0.00     0.037 A
HETATM   15  N2  T4D A 404      10.474  -2.664  24.003  1.00  0.00    -0.190 NA
HETATM   16  C9  T4D A 404       8.815  -5.448  27.563  1.00  0.00     0.004 A
HETATM   17  C11 T4D A 404       9.054  -3.805  25.835  1.00  0.00     0.153 A
HETATM   18  C12 T4D A 404       9.845  -3.225  24.781  1.00  0.00     0.117 C
HETATM   19  C8  T4D A 404       7.578  -4.937  27.883  1.00  0.00     0.018 A
HETATM   20  C7  T4D A 404       7.062  -3.857  27.191  1.00  0.00     0.123 A
ENDBRANCH  10  13
ENDBRANCH   1  10
TORSDOF 2
