MODEL        1
REMARK THIS MODEL IS IDENTICAL TO THE INPUT LIGAND AND NOT FROM DOCKING
REMARK 921   NORMALIZED FREE ENERGY PREDICTED BY IDOCK:   -3.89 KCAL/MOL
REMARK 922        TOTAL FREE ENERGY PREDICTED BY IDOCK:   -5.13 KCAL/MOL
REMARK 923 INTER-LIGAND FREE ENERGY PREDICTED BY IDOCK:   -4.80 KCAL/MOL
REMARK 924 INTRA-LIGAND FREE ENERGY PREDICTED BY IDOCK:   -0.33 KCAL/MOL
REMARK 927      BINDING AFFINITY PREDICTED BY RF-SCORE:    0.00 PKD
ROOT
HETATM    1  C10CRQN A 401       8.415  -0.798  20.697  1.00  0.00    -0.244 A  
HETATM    2  C11CRQN A 401       7.821  -0.275  19.556  1.00  0.00    -0.437 A  
HETATM    3  C12CRQN A 401       6.591   0.379  19.609  1.00  0.00    -0.380 A  
HETATM    4  F18CRQN A 401       5.931   0.026  23.148  1.00  0.00    -0.188 F  
HETATM    5  C16CRQN A 401       5.964   0.476  20.821  1.00  0.00    -0.333 A  
HETATM    6  C09CRQN A 401       7.775  -0.676  21.906  1.00  0.00    -0.244 A  
HETATM    7  C17CRQN A 401       6.548  -0.065  21.954  1.00  0.00    -0.246 A  
ENDROOT
BRANCH   3   8
HETATM    8  C13CRQN A 401       5.958   0.959  18.344  1.00  0.00    -0.470 C  
HETATM    9  H12CRQN A 401       4.706   2.344  19.058  1.00  0.00     0.000 HD 
HETATM   10  H11CRQN A 401       4.251   1.989  17.515  1.00  0.00     0.000 HD 
HETATM   11  O15CRQN A 401       6.500   0.883  17.322  1.00  0.00    -0.671 OA 
HETATM   12  N14CRQN A 401       4.673   1.602  18.359  1.00  0.00     0.014 N  
ENDBRANCH   3   8
BRANCH   6  13
HETATM   13  O08CRQN A 401       8.272  -1.191  23.106  1.00  0.00    -0.216 OA 
BRANCH  13  14
HETATM   14  C07CRQN A 401       9.653  -1.382  23.249  1.00  0.00    -0.110 A  
HETATM   15  C05CRQN A 401      10.048  -2.616  23.734  1.00  0.00     0.623 A  
HETATM   16  O06CRQN A 401       9.083  -3.567  24.001  1.00  0.00    -0.106 OA 
HETATM   17  C04CRQN A 401      11.384  -2.922  23.943  1.00  0.00     0.652 A  
HETATM   18  C03CRQN A 401      12.337  -1.974  23.673  1.00  0.00    -0.135 A  
HETATM   19  H1 CRQN A 401       8.168  -3.357  23.858  1.00  0.00     0.000 HD 
HETATM   20  C20CRQN A 401      11.973  -0.730  23.201  1.00  0.00    -0.324 A  
HETATM   21  F21CRQN A 401      12.987   0.124  22.963  1.00  0.00    -0.362 F  
HETATM   22  C19CRQN A 401      10.628  -0.410  22.976  1.00  0.00    -0.298 A  
BRANCH  18  23
HETATM   23  C02CRQN A 401      13.805  -2.280  23.902  1.00  0.00    -0.634 C  
HETATM   24  C01CRQN A 401      14.120  -2.434  25.385  1.00  0.00    -0.684 C  
ENDBRANCH  18  23
ENDBRANCH  13  14
ENDBRANCH   6  13
TORSDOF 4
ENDMDL
