MODEL        1
REMARK THIS MODEL IS IDENTICAL TO THE INPUT LIGAND AND NOT FROM DOCKING
REMARK 921   NORMALIZED FREE ENERGY PREDICTED BY IDOCK:    0.86 KCAL/MOL
REMARK 922        TOTAL FREE ENERGY PREDICTED BY IDOCK:    0.89 KCAL/MOL
REMARK 923 INTER-LIGAND FREE ENERGY PREDICTED BY IDOCK:    0.96 KCAL/MOL
REMARK 924 INTRA-LIGAND FREE ENERGY PREDICTED BY IDOCK:   -0.08 KCAL/MOL
REMARK 927      BINDING AFFINITY PREDICTED BY RF-SCORE:    0.00 PKD
ROOT
HETATM    1  C13 T7P A 404       5.114  -4.717  22.742  1.00  0.00    -0.168 C  
HETATM    2  C15 T7P A 404       4.205  -5.189  24.928  1.00  0.00    -0.201 C  
HETATM    3  C19 T7P A 404       4.694  -6.188  22.581  1.00  0.00    -0.005 C  
HETATM    4  C14 T7P A 404       4.964  -4.357  24.220  1.00  0.00    -0.022 C  
HETATM    5  O17 T7P A 404       2.656  -7.101  24.020  1.00  0.00    -0.199 OA 
HETATM    6  S16 T7P A 404       4.043  -6.741  24.144  1.00  0.00    -0.208 S  
HETATM    7  O18 T7P A 404       4.921  -7.705  24.751  1.00  0.00    -0.428 OA 
ENDROOT
BRANCH   1   8
HETATM    8  N05 T7P A 404       6.483  -4.523  22.261  1.00  0.00    -0.325 N  
HETATM    9  C02 T7P A 404       6.738  -4.362  20.916  1.00  0.00     0.758 C  
HETATM   10  C03 T7P A 404       8.039  -3.699  20.519  1.00  0.00     3.996 C  
HETATM   11  O01 T7P A 404       5.951  -4.748  20.060  1.00  0.00    -0.161 OA 
BRANCH   8  12
HETATM   12  C06 T7P A 404       7.559  -4.559  23.210  1.00  0.00    -0.327 A  
HETATM   13  C11 T7P A 404       9.152  -5.819  24.497  1.00  0.00    -0.255 A  
HETATM   14  C12 T7P A 404       8.119  -5.778  23.576  1.00  0.00    -0.293 A  
HETATM   15  C09 T7P A 404       9.593  -4.645  25.037  1.00  0.00    -0.389 A  
HETATM   16  F10 T7P A 404      10.611  -4.692  25.937  1.00  0.00    -0.224 F  
HETATM   17  C08 T7P A 404       9.064  -3.428  24.708  1.00  0.00    -0.314 A  
HETATM   18  C07 T7P A 404       8.033  -3.381  23.782  1.00  0.00    -0.268 A  
ENDBRANCH   8  12
ENDBRANCH   1   8
TORSDOF 2
ENDMDL
