REMARK  2 active torsions:
REMARK  status: ('A' for Active; 'I' for Inactive)
REMARK    1  A    between atoms: N1_1  and  S_10
REMARK    2  A    between atoms: S_10  and  C6_13
ROOT
HETATM    1  N1  T6M A 404       5.924  -5.437  24.469  1.00  0.00    -0.880 N
HETATM    2  C   T6M A 404       7.951  -3.598  20.317  1.00  0.00     0.105 C
HETATM    3  C3  T6M A 404       4.986  -5.763  23.383  1.00  0.00     0.218 C
HETATM    4  C5  T6M A 404       7.586  -4.667  22.926  1.00  0.00     0.120 C
HETATM    5  C2  T6M A 404       5.788  -6.138  22.165  1.00  0.00     0.120 C
HETATM    6  O   T6M A 404       5.907  -4.658  19.750  1.00  0.00    -0.280 OA
HETATM    7  C1  T6M A 404       6.771  -4.487  20.598  1.00  0.00     0.200 C
HETATM    8  N   T6M A 404       6.718  -5.063  21.815  1.00  0.00    -0.241 N
HETATM    9  C4  T6M A 404       6.757  -4.282  24.117  1.00  0.00     0.218 C
ENDROOT
BRANCH   1  10
HETATM   10  S   T6M A 404       5.350  -5.498  25.999  1.00  0.00     2.572 S
HETATM   11  O2  T6M A 404       4.778  -6.796  26.161  1.00  0.00    -0.924 OA
HETATM   12  O1  T6M A 404       6.420  -5.072  26.844  1.00  0.00    -0.924 OA
BRANCH  10  13
HETATM   13  C6  T6M A 404       4.046  -4.314  26.087  1.00  0.00    -0.588 A
HETATM   14  C8  T6M A 404       3.313  -2.073  26.454  1.00  0.00     0.038 A
HETATM   15  C7  T6M A 404       4.334  -3.003  26.403  1.00  0.00     0.124 A
HETATM   16  C9  T6M A 404       2.026  -2.475  26.177  1.00  0.00     0.043 A
HETATM   17  C10 T6M A 404       1.732  -3.779  25.853  1.00  0.00     0.038 A
HETATM   18 CL1  T6M A 404       0.738  -1.308  26.241  1.00  0.00    -0.083 Cl
HETATM   19  C11 T6M A 404       2.755  -4.706  25.801  1.00  0.00     0.124 A
ENDBRANCH  10  13
ENDBRANCH   1  10
TORSDOF 2
