MODEL        1
REMARK THIS MODEL IS IDENTICAL TO THE INPUT LIGAND AND NOT FROM DOCKING
REMARK 921   NORMALIZED FREE ENERGY PREDICTED BY IDOCK:   -1.07 KCAL/MOL
REMARK 922        TOTAL FREE ENERGY PREDICTED BY IDOCK:   -2.97 KCAL/MOL
REMARK 923 INTER-LIGAND FREE ENERGY PREDICTED BY IDOCK:   -1.70 KCAL/MOL
REMARK 924 INTRA-LIGAND FREE ENERGY PREDICTED BY IDOCK:   -1.27 KCAL/MOL
REMARK 927      BINDING AFFINITY PREDICTED BY RF-SCORE:    0.00 PKD
ROOT
HETATM    1  C7  K36 B 401      11.216  37.366  28.324  1.00  0.00    -0.246 C  
ENDROOT
BRANCH   1   2
HETATM    2  C1  K36 B 401       9.800  37.030  28.716  1.00  0.00    -0.195 A  
HETATM    3  C2  K36 B 401       8.975  38.013  29.248  1.00  0.00    -0.240 A  
HETATM    4  C3  K36 B 401       7.684  37.711  29.659  1.00  0.00    -0.167 A  
HETATM    5  C6  K36 B 401       9.296  35.739  28.593  1.00  0.00    -0.153 A  
HETATM    6  C4  K36 B 401       7.200  36.424  29.538  1.00  0.00    -0.123 A  
HETATM    7  C5  K36 B 401       8.004  35.440  29.001  1.00  0.00    -0.130 A  
ENDBRANCH   1   2
BRANCH   1   8
HETATM    8  O8 AK36 B 401      11.869  36.244  27.647  1.00  0.00    -0.488 OA 
BRANCH   8   9
HETATM    9  C9  K36 B 401      11.621  36.096  26.324  1.00  0.00    -0.363 C  
HETATM   10  O10 K36 B 401      11.067  36.921  25.630  1.00  0.00    -0.552 OA 
HETATM   11  H11 K36 B 401      12.693  34.346  26.469  1.00  0.00     0.000 HD 
HETATM   12  N11 K36 B 401      12.068  34.906  25.890  1.00  0.00     0.033 N  
BRANCH  12  13
HETATM   13  C12 K36 B 401      11.650  34.429  24.588  1.00  0.00    -0.336 C  
BRANCH  13  14
HETATM   14  C17 K36 B 401      10.129  34.252  24.542  1.00  0.00    -0.289 C  
HETATM   15  H19 K36 B 401      10.113  35.112  22.710  1.00  0.00     0.000 HD 
HETATM   16  N19 K36 B 401       9.525  34.691  23.430  1.00  0.00     0.262 N  
HETATM   17  O18 K36 B 401       9.526  33.727  25.475  1.00  0.00    -0.217 OA 
BRANCH  16  18
HETATM   18  C20 K36 B 401       8.091  34.614  23.168  1.00  0.00     0.864 C  
BRANCH  18  19
HETATM   19  C21 K36 B 401       7.838  33.772  21.866  1.00  0.00     4.685 C  
HETATM   20  O22AK36 B 401       6.441  33.524  21.811  1.00  0.00     0.494 OA 
HETATM   21  H  AK36 B 401       6.288  33.015  21.024  1.00  0.00     0.000 HD 
ENDBRANCH  18  19
BRANCH  18  22
HETATM   22  C24 K36 B 401       7.499  36.022  23.065  1.00  0.00     0.055 C  
BRANCH  22  23
HETATM   23  C25 K36 B 401       7.478  36.787  24.395  1.00  0.00    -0.385 C  
HETATM   24  C26 K36 B 401       6.677  36.127  25.535  1.00  0.00    -0.349 C  
HETATM   25  C27 K36 B 401       5.959  37.242  26.236  1.00  0.00    -0.363 C  
HETATM   26  N28 K36 B 401       5.943  38.306  25.242  1.00  0.00    -0.238 NA 
HETATM   27  C29 K36 B 401       6.830  38.152  24.259  1.00  0.00    -0.494 C  
HETATM   28  O30 K36 B 401       7.056  38.962  23.364  1.00  0.00    -0.671 OA 
ENDBRANCH  22  23
ENDBRANCH  18  22
ENDBRANCH  16  18
ENDBRANCH  13  14
BRANCH  13  29
HETATM   29  C13 K36 B 401      12.380  33.133  24.217  1.00  0.00    -0.434 C  
HETATM   30  C14 K36 B 401      13.913  33.224  24.215  1.00  0.00    -0.396 C  
HETATM   31  C15 K36 B 401      14.600  31.891  23.899  1.00  0.00    -0.625 C  
HETATM   32  C16 K36 B 401      14.407  34.313  23.298  1.00  0.00    -0.641 C  
ENDBRANCH  13  29
ENDBRANCH  12  13
ENDBRANCH   8   9
ENDBRANCH   1   8
TORSDOF 10
ENDMDL
