REMARK  6 active torsions:
REMARK  status: ('A' for Active; 'I' for Inactive)
REMARK    1  A    between atoms: N10A_1  and  C11A_10
REMARK    2  A    between atoms: C11A_10  and  C12A_11
REMARK    3  A    between atoms: N03A_5  and  C04A_14
REMARK    4  A    between atoms: C04A_14  and  C05A_15
REMARK    5  A    between atoms: N17A_7  and  C18A_18
REMARK    6  A    between atoms: C18A_18  and  C19A_19
ROOT
HETATM    1  N10ARV8 A 402       9.884  -0.458  22.562  1.00  0.00    -0.153 N
HETATM    2  C08ARV8 A 402       9.390  -1.376  23.591  1.00  0.00     0.293 C
HETATM    3  O16ARV8 A 402       9.371   0.861  20.742  1.00  0.00    -0.259 OA
HETATM    4  O09ARV8 A 402      10.145  -1.833  24.398  1.00  0.00    -0.259 OA
HETATM    5  N03ARV8 A 402       7.966  -1.721  23.628  1.00  0.00    -0.153 N
HETATM    6  C15ARV8 A 402       8.965   0.113  21.576  1.00  0.00     0.293 C
HETATM    7  N17ARV8 A 402       7.546  -0.240  21.614  1.00  0.00    -0.153 N
HETATM    8  C02ARV8 A 402       7.047  -1.150  22.645  1.00  0.00     0.293 C
HETATM    9  O01ARV8 A 402       5.890  -1.432  22.681  1.00  0.00    -0.259 OA
ENDROOT
BRANCH   1  10
HETATM   10  C11ARV8 A 402      11.316  -0.103  22.535  1.00  0.00     0.137 C
BRANCH  10  11
HETATM   11  C12ARV8 A 402      11.687   0.603  23.865  1.00  0.00     0.159 C
HETATM   12  C13ARV8 A 402      11.233   1.967  23.993  1.00  0.00     0.193 C
HETATM   13  O14ARV8 A 402      10.599   0.922  24.765  1.00  0.00    -0.370 OA
ENDBRANCH  10  11
ENDBRANCH   1  10
BRANCH   5  14
HETATM   14  C04ARV8 A 402       7.451  -2.636  24.664  1.00  0.00     0.137 C
BRANCH  14  15
HETATM   15  C05ARV8 A 402       7.523  -4.100  24.186  1.00  0.00     0.159 C
HETATM   16  C06ARV8 A 402       6.592  -4.971  24.857  1.00  0.00     0.193 C
HETATM   17  O07ARV8 A 402       6.370  -4.597  23.475  1.00  0.00    -0.370 OA
ENDBRANCH  14  15
ENDBRANCH   5  14
BRANCH   7  18
HETATM   18  C18ARV8 A 402       6.598   0.331  20.636  1.00  0.00     0.137 C
BRANCH  18  19
HETATM   19  C19ARV8 A 402       6.866  -0.165  19.199  1.00  0.00     0.159 C
HETATM   20  C20ARV8 A 402       6.118   0.556  18.196  1.00  0.00     0.193 C
HETATM   21  O21ARV8 A 402       7.549   0.737  18.300  1.00  0.00    -0.370 OA
ENDBRANCH  18  19
ENDBRANCH   7  18
TORSDOF 6
