REMARK  2 active torsions:
REMARK  status: ('A' for Active; 'I' for Inactive)
REMARK    1  A    between atoms: C04_7  and  N03_9
REMARK    2  A    between atoms: N03_9  and  C02_11
ROOT
HETATM    1  C10 RZS A1001      12.797   0.040  23.321  1.00  0.00     0.131 A
HETATM    2  C07 RZS A1001      12.505  -1.087  22.565  1.00  0.00     0.070 A
HETATM    3  C06 RZS A1001      11.365  -1.819  22.878  1.00  0.00     0.023 A
HETATM    4  C08 RZS A1001      13.425  -1.516  21.429  1.00  0.00     0.101 C
HETATM    5  C05 RZS A1001      10.571  -1.390  23.931  1.00  0.00     0.041 A
HETATM    6  N09 RZS A1001      14.117  -1.821  20.577  1.00  0.00    -0.191 NA
HETATM    7  C04 RZS A1001      10.930  -0.252  24.643  1.00  0.00     0.107 A
HETATM    8  N11 RZS A1001      12.014   0.425  24.323  1.00  0.00    -0.242 NA
ENDROOT
BRANCH   7   9
HETATM    9  N03 RZS A1001      10.132   0.251  25.738  1.00  0.00    -0.273 NA
HETATM   10  H03 RZS A1001      10.332   1.186  26.094  1.00  0.00     0.129 HD
BRANCH   9  11
HETATM   11  C02 RZS A1001       9.063  -0.505  26.355  1.00  0.00     0.084 C
HETATM   12  C01 RZS A1001       8.940  -0.033  27.796  1.00  0.00     0.020 C
ENDBRANCH   9  11
ENDBRANCH   7   9
TORSDOF 2
