REMARK  4 active torsions:
REMARK  status: ('A' for Active; 'I' for Inactive)
REMARK    1  A    between atoms: N1_1  and  C7_3
REMARK    2  A    between atoms: N1_1  and  C_9
REMARK    3  A    between atoms: C_9  and  N_11
REMARK    4  A    between atoms: N_11  and  C1_13
ROOT
HETATM    1  N1  K0G A 404       7.330  -0.662  20.931  1.00  0.00    -0.213 N
HETATM    2  H1  K0G A 404       6.882  -1.458  21.386  1.00  0.00     0.138 HD
ENDROOT
BRANCH   1   3
HETATM    3  C7  K0G A 404       6.649   0.027  19.868  1.00  0.00     0.041 A
HETATM    4  C10 K0G A 404       5.406   1.281  17.851  1.00  0.00     0.111 A
HETATM    5  N2  K0G A 404       6.555   0.685  17.640  1.00  0.00    -0.262 NA
HETATM    6  C8  K0G A 404       5.445   0.652  20.152  1.00  0.00     0.023 A
HETATM    7  C9  K0G A 404       4.815   1.312  19.109  1.00  0.00     0.021 A
HETATM    8  C11 K0G A 404       7.189   0.056  18.594  1.00  0.00     0.130 A
ENDBRANCH   1   3
BRANCH   1   9
HETATM    9  C   K0G A 404       8.639  -0.239  21.360  1.00  0.00     0.281 C
HETATM   10  O   K0G A 404       9.192   0.679  20.850  1.00  0.00    -0.260 OA
BRANCH   9  11
HETATM   11  N   K0G A 404       9.279  -0.969  22.427  1.00  0.00    -0.214 N
HETATM   12  H   K0G A 404       8.840  -1.777  22.868  1.00  0.00     0.138 HD
BRANCH  11  13
HETATM   13  C1  K0G A 404      10.566  -0.493  22.830  1.00  0.00     0.023 A
HETATM   14  C5  K0G A 404      11.811   0.848  24.344  1.00  0.00     0.002 A
HETATM   15  C4  K0G A 404      12.969   0.533  23.647  1.00  0.00     0.000 A
HETATM   16  C6  K0G A 404      10.605   0.338  23.931  1.00  0.00     0.020 A
HETATM   17  C3  K0G A 404      12.922  -0.298  22.541  1.00  0.00     0.002 A
HETATM   18  C2  K0G A 404      11.709  -0.808  22.121  1.00  0.00     0.020 A
ENDBRANCH  11  13
ENDBRANCH   9  11
ENDBRANCH   1   9
TORSDOF 4
