MODEL        1
REMARK THIS MODEL IS IDENTICAL TO THE INPUT LIGAND AND NOT FROM DOCKING
REMARK 921   NORMALIZED FREE ENERGY PREDICTED BY IDOCK:   -4.83 KCAL/MOL
REMARK 922        TOTAL FREE ENERGY PREDICTED BY IDOCK:   -5.80 KCAL/MOL
REMARK 923 INTER-LIGAND FREE ENERGY PREDICTED BY IDOCK:   -5.67 KCAL/MOL
REMARK 924 INTRA-LIGAND FREE ENERGY PREDICTED BY IDOCK:   -0.13 KCAL/MOL
REMARK 927      BINDING AFFINITY PREDICTED BY RF-SCORE:    0.00 PKD
ROOT
HETATM    1  C10 RZG A 404      13.459   2.162  22.819  1.00  0.00    -0.224 A  
HETATM    2  C05 RZG A 404      12.914   1.029  23.403  1.00  0.00    -0.558 A  
HETATM    3  C08 RZG A 404      11.595   3.454  23.588  1.00  0.00    -0.381 A  
HETATM    4  C06 RZG A 404      11.707   1.106  24.084  1.00  0.00    -0.462 A  
HETATM    5  C07 RZG A 404      11.044   2.322  24.179  1.00  0.00    -0.404 A  
HETATM    6  C09 RZG A 404      12.802   3.374  22.907  1.00  0.00    -0.535 A  
ENDROOT
BRANCH   2   7
HETATM    7  C03 RZG A 404      13.659  -0.300  23.302  1.00  0.00    -0.491 C  
HETATM    8  O04 RZG A 404      14.339  -0.516  22.361  1.00  0.00    -0.455 OA 
BRANCH   7   9
HETATM    9  O02 RZG A 404      13.548  -1.238  24.338  1.00  0.00    -0.431 OA 
HETATM   10  C01 RZG A 404      14.020  -2.537  24.074  1.00  0.00    -0.495 C  
ENDBRANCH   7   9
ENDBRANCH   2   7
BRANCH   3  11
HETATM   11  S11 RZG A 404      10.748   5.049  23.705  1.00  0.00    -0.290 S  
HETATM   12  O13 RZG A 404      10.485   5.379  25.107  1.00  0.00    -0.217 OA 
HETATM   13  O12 RZG A 404      11.626   6.147  23.287  1.00  0.00    -0.294 OA 
HETATM   14  N14 RZG A 404       9.311   5.041  22.782  1.00  0.00    -0.437 N  
HETATM   15 1H14 RZG A 404       8.834   5.940  22.848  1.00  0.00     0.000 HD 
HETATM   16 2H14 RZG A 404       8.976   4.245  22.239  1.00  0.00     0.000 HD 
ENDBRANCH   3  11
TORSDOF 3
ENDMDL
