MODEL        1
REMARK THIS MODEL IS IDENTICAL TO THE INPUT LIGAND AND NOT FROM DOCKING
REMARK 921   NORMALIZED FREE ENERGY PREDICTED BY IDOCK:   -2.76 KCAL/MOL
REMARK 922        TOTAL FREE ENERGY PREDICTED BY IDOCK:   -3.47 KCAL/MOL
REMARK 923 INTER-LIGAND FREE ENERGY PREDICTED BY IDOCK:   -3.41 KCAL/MOL
REMARK 924 INTRA-LIGAND FREE ENERGY PREDICTED BY IDOCK:   -0.06 KCAL/MOL
REMARK 927      BINDING AFFINITY PREDICTED BY RF-SCORE:    0.00 PKD
ROOT
HETATM    1  C13 U0V A 404       4.837   1.134  19.978  1.00  0.00    -0.520 A  
HETATM    2  C17 U0V A 404       5.607   1.211  17.724  1.00  0.00    -0.362 A  
HETATM    3  C14 U0V A 404       5.850   0.213  20.246  1.00  0.00    -0.378 A  
HETATM    4  C18 U0V A 404       4.724   1.634  18.703  1.00  0.00    -0.031 A  
HETATM    5  C15 U0V A 404       6.698  -0.154  19.200  1.00  0.00    -0.424 A  
HETATM    6  N16 U0V A 404       6.561   0.347  17.980  1.00  0.00    -0.710 NA 
ENDROOT
BRANCH   1   7
HETATM    7  C12 U0V A 404       3.834   1.609  21.033  1.00  0.00    -0.388 C  
BRANCH   7   8
HETATM    8  C11 U0V A 404       4.327   1.682  22.479  1.00  0.00    -0.149 C  
BRANCH   8   9
HETATM    9  N10 U0V A 404       3.316   2.437  23.220  1.00  0.00    -0.127 N  
HETATM   10  C08 U0V A 404       2.178   1.782  23.856  1.00  0.00    -0.101 C  
HETATM   11  O09 U0V A 404       2.050   0.602  23.800  1.00  0.00     0.029 OA 
HETATM   12  H10 U0V A 404       3.410   3.450  23.294  1.00  0.00     0.000 HD 
BRANCH  10  13
HETATM   13  C07 U0V A 404       1.119   2.595  24.599  1.00  0.00    -0.064 A  
HETATM   14  C02 U0V A 404       1.434   3.791  25.237  1.00  0.00    -0.042 A  
HETATM   15  F01 U0V A 404       2.716   4.280  25.230  1.00  0.00    -0.035 F  
HETATM   16  C03 U0V A 404       0.433   4.498  25.891  1.00  0.00    -0.016 A  
HETATM   17  C04 U0V A 404      -0.873   4.029  25.923  1.00  0.00    -0.004 A  
HETATM   18  C05 U0V A 404      -1.188   2.837  25.290  1.00  0.00    -0.023 A  
HETATM   19  C06 U0V A 404      -0.195   2.128  24.626  1.00  0.00    -0.065 A  
ENDBRANCH  10  13
ENDBRANCH   8   9
ENDBRANCH   7   8
ENDBRANCH   1   7
TORSDOF 4
ENDMDL
