MODEL        1
REMARK THIS MODEL IS IDENTICAL TO THE INPUT LIGAND AND NOT FROM DOCKING
REMARK 921   NORMALIZED FREE ENERGY PREDICTED BY IDOCK:   -2.51 KCAL/MOL
REMARK 922        TOTAL FREE ENERGY PREDICTED BY IDOCK:   -5.37 KCAL/MOL
REMARK 923 INTER-LIGAND FREE ENERGY PREDICTED BY IDOCK:   -4.72 KCAL/MOL
REMARK 924 INTRA-LIGAND FREE ENERGY PREDICTED BY IDOCK:   -0.65 KCAL/MOL
REMARK 927      BINDING AFFINITY PREDICTED BY RF-SCORE:    0.00 PKD
ROOT
HETATM    1  C1  NOL A 401      42.558   9.482 -17.877  1.00  0.00    -0.115 A  
HETATM    2  C2  NOL A 401      43.106   8.318 -18.404  1.00  0.00    -0.082 A  
HETATM    3  C3  NOL A 401      44.512   8.216 -18.456  1.00  0.00    -0.274 A  
HETATM    4  C5  NOL A 401      44.785  10.393 -17.455  1.00  0.00    -0.309 A  
HETATM    5  C4  NOL A 401      45.353   9.233 -17.981  1.00  0.00    -0.293 A  
HETATM    6  C6  NOL A 401      43.394  10.497 -17.406  1.00  0.00     0.084 A  
ENDROOT
BRANCH   2   7
HETATM    7  C13 NOL A 401      42.184   7.201 -18.905  1.00  0.00     0.226 C  
BRANCH   7   8
HETATM    8  O15 NOL A 401      41.604   6.423 -17.842  1.00  0.00    -0.124 OA 
BRANCH   8   9
HETATM    9  C17 NOL A 401      42.451   5.770 -16.830  1.00  0.00    -0.289 C  
HETATM   10  O89 NOL A 401      43.675   5.850 -16.909  1.00  0.00    -0.256 OA 
HETATM   11  N19 NOL A 401      41.877   5.112 -15.819  1.00  0.00    -0.158 N  
HETATM   12  H19 NOL A 401      40.872   5.198 -15.667  1.00  0.00     0.000 HD 
BRANCH  11  13
HETATM   13  C21 NOL A 401      42.674   4.270 -14.929  1.00  0.00    -0.229 C  
BRANCH  13  14
HETATM   14  C23 NOL A 401      42.028   2.967 -14.549  1.00  0.00    -0.311 C  
HETATM   15  O73 NOL A 401      41.064   2.932 -13.777  1.00  0.00    -0.509 OA 
HETATM   16  H25 NOL A 401      43.393   2.085 -15.757  1.00  0.00     0.000 HD 
HETATM   17  N25 NOL A 401      42.623   1.913 -15.110  1.00  0.00    -0.258 N  
BRANCH  17  18
HETATM   18  C27 NOL A 401      42.241   0.537 -14.856  1.00  0.00    -0.307 C  
BRANCH  18  19
HETATM   19  C58 NOL A 401      43.257  -0.458 -15.444  1.00  0.00    -0.339 C  
BRANCH  19  20
HETATM   20  C60 NOL A 401      43.482  -0.296 -16.954  1.00  0.00    -0.435 C  
HETATM   21  C65 NOL A 401      42.146  -0.202 -19.132  1.00  0.00    -0.452 C  
HETATM   22  C62 NOL A 401      43.956  -1.623 -17.554  1.00  0.00    -0.191 C  
HETATM   23  C66 NOL A 401      42.195   0.165 -17.648  1.00  0.00    -0.465 C  
HETATM   24  C63 NOL A 401      44.289  -1.520 -19.038  1.00  0.00    -0.419 C  
HETATM   25  C64 NOL A 401      43.531  -0.413 -19.738  1.00  0.00    -0.425 C  
ENDBRANCH  19  20
ENDBRANCH  18  19
BRANCH  18  26
HETATM   26  C29 NOL A 401      42.063   0.293 -13.384  1.00  0.00    -0.303 C  
HETATM   27  O56 NOL A 401      42.975   0.492 -12.576  1.00  0.00    -0.215 OA 
HETATM   28  N31 NOL A 401      40.857  -0.137 -13.015  1.00  0.00     0.136 N  
HETATM   29  H31 NOL A 401      40.072  -0.120 -13.666  1.00  0.00     0.000 HD 
BRANCH  28  30
HETATM   30  C33 NOL A 401      40.693  -0.632 -11.656  1.00  0.00     1.112 C  
BRANCH  30  31
HETATM   31  C41 NOL A 401      39.653   0.211 -10.904  1.00  0.00     0.067 C  
BRANCH  31  32
HETATM   32  C43 NOL A 401      40.200   1.637 -10.761  1.00  0.00    -0.351 C  
HETATM   33  C47 NOL A 401      41.141   2.749  -8.788  1.00  0.00    -0.030 C  
HETATM   34  C45 NOL A 401      41.433   1.691  -9.857  1.00  0.00    -0.211 C  
HETATM   35  N49 NOL A 401      39.768   3.158  -9.032  1.00  0.00    -0.687 N  
HETATM   36  H49 NOL A 401      39.264   3.816  -8.437  1.00  0.00     0.000 HD 
HETATM   37  C51 NOL A 401      39.230   2.584 -10.118  1.00  0.00    -0.462 C  
HETATM   38  O54 NOL A 401      38.119   2.789 -10.586  1.00  0.00    -0.698 OA 
ENDBRANCH  31  32
ENDBRANCH  30  31
BRANCH  30  39
HETATM   39  C35 NOL A 401      40.502  -2.147 -11.682  1.00  0.00     4.227 C  
HETATM   40  O39 NOL A 401      40.604  -2.741 -10.391  1.00  0.00     0.072 OA 
HETATM   41  H39 NOL A 401      40.485  -3.683 -10.407  1.00  0.00     0.000 HD 
ENDBRANCH  30  39
ENDBRANCH  28  30
ENDBRANCH  18  26
ENDBRANCH  17  18
ENDBRANCH  13  14
BRANCH  13  42
HETATM   42  C75 NOL A 401      43.046   4.962 -13.630  1.00  0.00    -0.208 C  
HETATM   43  C77 NOL A 401      43.988   4.061 -12.816  1.00  0.00    -0.157 C  
BRANCH  42  44
HETATM   44  O79 NOL A 401      43.653   6.203 -13.973  1.00  0.00    -0.192 OA 
HETATM   45  C81 NOL A 401      43.652   7.272 -13.039  1.00  0.00    -0.147 C  
HETATM   46  C83 NOL A 401      42.586   6.963 -11.987  1.00  0.00    -0.335 C  
HETATM   47  C85 NOL A 401      43.269   8.520 -13.836  1.00  0.00    -0.290 C  
HETATM   48  C87 NOL A 401      45.064   7.375 -12.400  1.00  0.00    -0.118 C  
ENDBRANCH  42  44
ENDBRANCH  13  42
ENDBRANCH  11  13
ENDBRANCH   8   9
ENDBRANCH   7   8
ENDBRANCH   2   7
TORSDOF 15
ENDMDL
