MODEL        1
REMARK THIS MODEL IS IDENTICAL TO THE INPUT LIGAND AND NOT FROM DOCKING
REMARK 921   NORMALIZED FREE ENERGY PREDICTED BY IDOCK:   -3.37 KCAL/MOL
REMARK 922        TOTAL FREE ENERGY PREDICTED BY IDOCK:   -9.48 KCAL/MOL
REMARK 923 INTER-LIGAND FREE ENERGY PREDICTED BY IDOCK:   -6.52 KCAL/MOL
REMARK 924 INTRA-LIGAND FREE ENERGY PREDICTED BY IDOCK:   -2.96 KCAL/MOL
REMARK 927      BINDING AFFINITY PREDICTED BY RF-SCORE:    0.00 PKD
ROOT
HETATM    1  C1  NNA A 401     -16.908   3.554  -0.184  1.00  0.00    -0.280 C  
HETATM    2  O2  NNA A 401     -17.315   3.223  -1.312  1.00  0.00    -0.319 OA 
ENDROOT
BRANCH   1   3
HETATM    3  N18 NNA A 401     -15.693   3.171   0.266  1.00  0.00    -0.462 N  
HETATM    4  H18 NNA A 401     -15.332   3.562   1.136  1.00  0.00     0.000 HD 
BRANCH   3   5
HETATM    5  C19 NNA A 401     -14.894   2.209  -0.475  1.00  0.00    -0.196 C  
BRANCH   5   6
HETATM    6  C24 NNA A 401     -14.924   0.871   0.263  1.00  0.00    -0.259 C  
HETATM    7  C29 NNA A 401     -16.673  -2.214  -0.495  1.00  0.00    -0.497 C  
HETATM    8  O25 NNA A 401     -14.413   0.730   1.370  1.00  0.00    -0.488 OA 
HETATM    9  N26 NNA A 401     -15.562  -0.146  -0.337  1.00  0.00    -0.230 N  
HETATM   10  C33 NNA A 401     -18.577  -0.568   0.144  1.00  0.00    -0.385 C  
HETATM   11  C32 NNA A 401     -19.142  -2.653  -1.148  1.00  0.00    -0.664 C  
HETATM   12  C28 NNA A 401     -15.631  -1.457   0.308  1.00  0.00    -0.342 C  
HETATM   13  C27 NNA A 401     -16.217  -0.089  -1.651  1.00  0.00    -0.310 C  
HETATM   14  C31 NNA A 401     -18.060  -1.671  -0.754  1.00  0.00    -0.367 C  
HETATM   15  C30 NNA A 401     -16.961  -1.406  -1.746  1.00  0.00    -0.368 C  
BRANCH  12  16
HETATM   16  C34 NNA A 401     -14.285  -2.171   0.227  1.00  0.00    -0.317 C  
HETATM   17  N36 NNA A 401     -13.718  -2.477   1.394  1.00  0.00    -0.167 N  
HETATM   18  O35 NNA A 401     -13.766  -2.415  -0.861  1.00  0.00    -0.196 OA 
HETATM   19  H36 NNA A 401     -14.256  -2.357   2.252  1.00  0.00     0.000 HD 
BRANCH  17  20
HETATM   20  C37 NNA A 401     -12.340  -2.983   1.483  1.00  0.00     0.890 C  
BRANCH  20  21
HETATM   21  C43 NNA A 401     -12.282  -4.356   2.179  1.00  0.00     4.267 C  
HETATM   22  O42 NNA A 401     -13.289  -5.216   1.656  1.00  0.00     1.424 OA 
HETATM   23  H42 NNA A 401     -13.253  -6.063   2.085  1.00  0.00     0.000 HD 
BRANCH  21  24
HETATM   24  C49 NNA A 401     -10.918  -4.971   2.009  1.00  0.00     0.942 C  
HETATM   25  O44 NNA A 401     -10.118  -4.971   2.949  1.00  0.00    -0.459 OA 
HETATM   26  N45 NNA A 401     -10.648  -5.498   0.811  1.00  0.00    -0.323 N  
HETATM   27  H45 NNA A 401     -11.357  -5.459   0.079  1.00  0.00     0.000 HD 
BRANCH  26  28
HETATM   28  C46 NNA A 401      -9.382  -6.119   0.528  1.00  0.00    -0.177 C  
HETATM   29  C48 NNA A 401      -9.155  -6.634  -0.849  1.00  0.00    -0.299 C  
HETATM   30  C47 NNA A 401      -8.455  -5.405  -0.391  1.00  0.00    -0.375 C  
ENDBRANCH  26  28
ENDBRANCH  21  24
ENDBRANCH  20  21
BRANCH  20  31
HETATM   31  C38 NNA A 401     -11.454  -1.962   2.201  1.00  0.00     0.260 C  
BRANCH  31  32
HETATM   32  C39 NNA A 401     -11.399  -0.619   1.510  1.00  0.00    -0.291 C  
BRANCH  32  33
HETATM   33  C40 NNA A 401     -10.717   0.437   2.344  1.00  0.00    -0.312 C  
HETATM   34  C41 NNA A 401      -9.306   0.088   2.752  1.00  0.00    -0.452 C  
ENDBRANCH  32  33
ENDBRANCH  31  32
ENDBRANCH  20  31
ENDBRANCH  17  20
ENDBRANCH  12  16
ENDBRANCH   5   6
BRANCH   5  35
HETATM   35  C20 NNA A 401     -13.475   2.714  -0.788  1.00  0.00    -0.147 C  
HETATM   36  C23 NNA A 401     -12.668   1.609  -1.476  1.00  0.00    -0.131 C  
HETATM   37  C22 NNA A 401     -12.741   3.141   0.486  1.00  0.00    -0.268 C  
HETATM   38  C21 NNA A 401     -13.547   3.918  -1.731  1.00  0.00    -0.132 C  
ENDBRANCH   5  35
ENDBRANCH   3   5
ENDBRANCH   1   3
BRANCH   1  39
HETATM   39  N3  NNA A 401     -17.628   4.303   0.679  1.00  0.00    -0.529 N  
HETATM   40  H3  NNA A 401     -17.207   4.492   1.589  1.00  0.00     0.000 HD 
BRANCH  39  41
HETATM   41  C4  NNA A 401     -18.967   4.874   0.431  1.00  0.00    -0.327 C  
HETATM   42  C6  NNA A 401     -19.419   5.701   1.646  1.00  0.00    -0.512 C  
HETATM   43  C8  NNA A 401     -19.674   4.844   2.878  1.00  0.00    -0.679 C  
HETATM   44  C9  NNA A 401     -20.698   3.768   2.586  1.00  0.00    -0.624 C  
HETATM   45  C5  NNA A 401     -19.990   3.751   0.189  1.00  0.00    -0.311 C  
HETATM   46  C7  NNA A 401     -20.240   2.905   1.428  1.00  0.00    -0.485 C  
BRANCH  41  47
HETATM   47  C10 NNA A 401     -18.907   5.781  -0.822  1.00  0.00    -0.076 C  
BRANCH  47  48
HETATM   48  S11 NNA A 401     -17.820   7.189  -0.787  1.00  0.00    -0.261 S  
HETATM   49  O13 NNA A 401     -18.531   8.311  -0.250  1.00  0.00    -0.242 OA 
HETATM   50  O12 NNA A 401     -16.570   6.802  -0.204  1.00  0.00    -0.273 OA 
HETATM   51  C17 NNA A 401     -16.355   8.640  -2.558  1.00  0.00    -0.148 C  
HETATM   52  C14 NNA A 401     -17.471   7.606  -2.502  1.00  0.00    -0.172 C  
HETATM   53  C16 NNA A 401     -17.055   6.336  -3.235  1.00  0.00    -0.196 C  
HETATM   54  C15 NNA A 401     -18.738   8.170  -3.137  1.00  0.00    -0.255 C  
ENDBRANCH  47  48
ENDBRANCH  41  47
ENDBRANCH  39  41
ENDBRANCH   1  39
TORSDOF 16
ENDMDL
