MODEL        1
REMARK THIS MODEL IS IDENTICAL TO THE INPUT LIGAND AND NOT FROM DOCKING
REMARK 921   NORMALIZED FREE ENERGY PREDICTED BY IDOCK:   -3.49 KCAL/MOL
REMARK 922        TOTAL FREE ENERGY PREDICTED BY IDOCK:   -4.02 KCAL/MOL
REMARK 923 INTER-LIGAND FREE ENERGY PREDICTED BY IDOCK:   -4.10 KCAL/MOL
REMARK 924 INTRA-LIGAND FREE ENERGY PREDICTED BY IDOCK:    0.09 KCAL/MOL
REMARK 927      BINDING AFFINITY PREDICTED BY RF-SCORE:    0.00 PKD
ROOT
HETATM    1  N1  UGV A1001       6.643   0.857  17.395  1.00  0.00    -0.518 NA 
HETATM    2  C10 UGV A1001       7.230   0.197  18.400  1.00  0.00    -0.321 A  
HETATM    3  C6  UGV A1001       6.651   0.039  19.658  1.00  0.00    -0.369 A  
HETATM    4  C7  UGV A1001       5.403   0.616  19.873  1.00  0.00    -0.488 A  
HETATM    5  C9  UGV A1001       5.442   1.399  17.629  1.00  0.00    -0.506 A  
HETATM    6  C8  UGV A1001       4.790   1.313  18.845  1.00  0.00    -0.401 A  
ENDROOT
BRANCH   3   7
HETATM    7  N   UGV A1001       7.299  -0.699  20.671  1.00  0.00    -0.287 N  
HETATM    8  H   UGV A1001       6.845  -1.565  20.960  1.00  0.00     0.000 HD 
HETATM    9  C5  UGV A1001       8.452  -0.389  21.302  1.00  0.00    -0.321 C  
HETATM   10  O   UGV A1001       9.132   0.602  21.037  1.00  0.00    -0.511 OA 
BRANCH   9  11
HETATM   11  C4  UGV A1001       8.856  -1.352  22.397  1.00  0.00    -0.269 C  
BRANCH  11  12
HETATM   12  C3  UGV A1001      10.040  -0.703  23.049  1.00  0.00    -0.257 A  
HETATM   13  C2  UGV A1001      10.046   0.035  24.213  1.00  0.00    -0.302 A  
HETATM   14  C1  UGV A1001      11.306   0.556  24.540  1.00  0.00    -0.535 A  
HETATM   15  C   UGV A1001      12.241   0.199  23.632  1.00  0.00     0.194 A  
HETATM   16 CL   UGV A1001      13.907   0.605  23.658  1.00  0.00     0.949 Cl 
HETATM   17  S   UGV A1001      11.623  -0.771  22.359  1.00  0.00    -0.162 SA 
ENDBRANCH  11  12
ENDBRANCH   9  11
ENDBRANCH   3   7
TORSDOF 3
ENDMDL
