REMARK 11 active torsions:
REMARK  status: ('A' for Active; 'I' for Inactive)
REMARK    1  A    between atoms: C28_1  and  N29_3
REMARK    2  A    between atoms: C28_1  and  N27_9
REMARK    3  A    between atoms: N27_9  and  C22_11
REMARK    4  A    between atoms: C22_11  and  C23_12
REMARK    5  A    between atoms: C22_11  and  C21_16
REMARK    6  A    between atoms: C13_22  and  C12_26
REMARK    7  A    between atoms: N11_28  and  C05_30
REMARK    8  A    between atoms: C05_30  and  C06_31
REMARK    9  A    between atoms: C05_30  and  C03_36
REMARK   10  A    between atoms: C06_31  and  C07_32
REMARK   11  A    between atoms: C03_36  and  C02_39
ROOT
HETATM    1  C28 U5G A 401       6.901  22.542  25.485  1.00  0.00     0.274 C
HETATM    2  O34 U5G A 401       7.299  22.951  26.542  1.00  0.00    -0.261 OA
ENDROOT
BRANCH   1   3
HETATM    3  N29 U5G A 401       5.876  21.498  25.376  1.00  0.00    -0.240 N
HETATM    4  C33 U5G A 401       6.314  19.910  27.197  1.00  0.00     0.027 C
HETATM    5  C32 U5G A 401       4.002  20.131  26.148  1.00  0.00     0.027 C
HETATM    6  C30 U5G A 401       5.278  20.892  26.589  1.00  0.00     0.019 C
HETATM    7  C31 U5G A 401       4.908  21.981  27.627  1.00  0.00     0.027 C
HETATM    8  H29 U5G A 401       5.571  21.186  24.454  1.00  0.00     0.132 HD
ENDBRANCH   1   3
BRANCH   1   9
HETATM    9  N27 U5G A 401       7.428  23.056  24.216  1.00  0.00    -0.233 N
HETATM   10  H27 U5G A 401       7.107  22.686  23.321  1.00  0.00     0.132 HD
BRANCH   9  11
HETATM   11  C22 U5G A 401       8.411  24.098  24.281  1.00  0.00     0.150 C
BRANCH  11  12
HETATM   12  C23 U5G A 401       9.677  23.830  23.460  1.00  0.00    -0.014 C
HETATM   13  C24 U5G A 401      10.540  25.123  23.463  1.00  0.00     0.012 C
HETATM   14  C25 U5G A 401       9.317  23.380  22.025  1.00  0.00     0.012 C
HETATM   15  C26 U5G A 401      10.407  22.691  24.219  1.00  0.00     0.012 C
ENDBRANCH  11  12
BRANCH  11  16
HETATM   16  C21 U5G A 401       7.687  25.363  23.773  1.00  0.00     0.222 C
HETATM   17  O35 U5G A 401       7.174  25.427  22.693  1.00  0.00    -0.278 OA
HETATM   18  N20 U5G A 401       7.596  26.552  24.626  1.00  0.00    -0.231 N
HETATM   19  C19 U5G A 401       8.132  26.626  25.856  1.00  0.00     0.098 C
HETATM   20  C15 U5G A 401       7.376  27.776  26.545  1.00  0.00     0.015 C
HETATM   21  C14 U5G A 401       6.752  28.573  25.393  1.00  0.00     0.026 C
HETATM   22  C13 U5G A 401       6.963  27.970  24.230  1.00  0.00     0.150 C
HETATM   23  C16 U5G A 401       5.903  28.224  26.619  1.00  0.00    -0.026 C
HETATM   24  C17 U5G A 401       4.941  27.023  26.412  1.00  0.00     0.011 C
HETATM   25  C18 U5G A 401       5.508  29.446  27.469  1.00  0.00     0.011 C
BRANCH  22  26
HETATM   26  C12 U5G A 401       8.024  28.512  23.269  1.00  0.00     0.219 C
HETATM   27  O36 U5G A 401       9.175  28.555  23.561  1.00  0.00    -0.278 OA
HETATM   28  N11 U5G A 401       7.542  28.921  21.942  1.00  0.00    -0.251 N
HETATM   29  H11 U5G A 401       6.550  28.836  21.722  1.00  0.00     0.131 HD
BRANCH  28  30
HETATM   30  C05 U5G A 401       8.463  29.450  20.925  1.00  0.00     0.099 C
BRANCH  30  31
HETATM   31  C06 U5G A 401       8.577  28.510  19.711  1.00  0.00     0.025 C
BRANCH  31  32
HETATM   32  C07 U5G A 401       9.306  27.209  20.192  1.00  0.00    -0.009 C
HETATM   33  C09 U5G A 401      11.157  26.207  19.678  1.00  0.00     0.001 C
HETATM   34  C08 U5G A 401       9.758  26.295  19.035  1.00  0.00     0.003 C
HETATM   35  C10 U5G A 401      10.795  27.410  20.561  1.00  0.00     0.003 C
ENDBRANCH  31  32
ENDBRANCH  30  31
BRANCH  30  36
HETATM   36  C03 U5G A 401       7.981  30.836  20.505  1.00  0.00     0.213 C
HETATM   37  H04 U5G A 401       7.628  32.437  21.430  1.00  0.00     0.210 HD
HETATM   38  O04 U5G A 401       7.928  31.574  21.691  1.00  0.00    -0.381 OA
BRANCH  36  39
HETATM   39  C02 U5G A 401       9.033  31.497  19.593  1.00  0.00     0.228 C
HETATM   40  N37 U5G A 401      10.102  32.280  20.199  1.00  0.00    -0.270 N
HETATM   41 2H37 U5G A 401      10.582  31.702  20.888  1.00  0.00     0.127 HD
HETATM   42 1H37 U5G A 401      10.798  32.717  19.595  1.00  0.00     0.127 HD
HETATM   43  O01 U5G A 401       9.004  31.351  18.406  1.00  0.00    -0.277 OA
ENDBRANCH  36  39
ENDBRANCH  30  36
ENDBRANCH  28  30
ENDBRANCH  22  26
ENDBRANCH  11  16
ENDBRANCH   9  11
ENDBRANCH   1   9
TORSDOF 11
