REMARK  8 active torsions:
REMARK  status: ('A' for Active; 'I' for Inactive)
REMARK    1  A    between atoms: C10_1  and  C09_7
REMARK    2  A    between atoms: C09_7  and  N08_8
REMARK    3  A    between atoms: C09_7  and  C16_28
REMARK    4  A    between atoms: N08_8  and  C27_11
REMARK    5  A    between atoms: N17_29  and  C18_32
REMARK    6  A    between atoms: C02_10  and  C03_23
REMARK    7  A    between atoms: C18_32  and  C20_34
REMARK    8  A    between atoms: C30_15  and  C31_17
ROOT
HETATM    1  C10 X7V A 401       5.552   0.366  19.697  1.00  0.00    -0.003 A
HETATM    2  C13 X7V A 401       4.874   0.901  17.143  1.00  0.00     0.111 A
HETATM    3  C11 X7V A 401       6.325  -0.109  18.683  1.00  0.00     0.116 A
HETATM    4  C15 X7V A 401       4.403   1.168  19.439  1.00  0.00     0.008 A
HETATM    5  C14 X7V A 401       4.074   1.424  18.107  1.00  0.00     0.020 A
HETATM    6  N12 X7V A 401       5.972   0.169  17.419  1.00  0.00    -0.263 NA
ENDROOT
BRANCH   1   7
HETATM    7  C09 X7V A 401       5.937   0.107  21.156  1.00  0.00     0.184 C
BRANCH   7   8
HETATM    8  N08 X7V A 401       6.301  -1.263  21.438  1.00  0.00    -0.193 N
HETATM    9  O01 X7V A 401       4.419  -2.283  20.487  1.00  0.00    -0.271 OA
HETATM   10  C02 X7V A 401       5.453  -2.442  21.073  1.00  0.00     0.263 C
BRANCH   8  11
HETATM   11  C27 X7V A 401       7.559  -1.539  22.183  1.00  0.00     0.027 A
HETATM   12  C38 X7V A 401       8.711  -1.937  21.473  1.00  0.00     0.021 A
HETATM   13  C37 X7V A 401       9.860  -2.177  22.150  1.00  0.00     0.010 A
HETATM   14  C28 X7V A 401       7.565  -1.387  23.568  1.00  0.00     0.021 A
HETATM   15  C30 X7V A 401       9.890  -2.027  23.553  1.00  0.00    -0.018 A
HETATM   16  C29 X7V A 401       8.739  -1.649  24.255  1.00  0.00     0.010 A
BRANCH  15  17
HETATM   17  C31 X7V A 401      11.150  -2.346  24.318  1.00  0.00    -0.018 A
HETATM   18  C36 X7V A 401      11.001  -3.026  25.577  1.00  0.00     0.008 A
HETATM   19  C35 X7V A 401      12.108  -3.370  26.311  1.00  0.00     0.001 A
HETATM   20  C34 X7V A 401      13.375  -3.067  25.809  1.00  0.00     0.000 A
HETATM   21  C33 X7V A 401      13.521  -2.401  24.555  1.00  0.00     0.001 A
HETATM   22  C32 X7V A 401      12.411  -2.055  23.809  1.00  0.00     0.008 A
ENDBRANCH  15  17
ENDBRANCH   8  11
BRANCH  10  23
HETATM   23  C03 X7V A 401       5.856  -3.917  21.453  1.00  0.00     0.141 A
HETATM   24  C06 X7V A 401       6.064  -6.110  21.390  1.00  0.00     0.136 A
HETATM   25  C04 X7V A 401       6.489  -4.333  22.647  1.00  0.00     0.040 A
HETATM   26  C05 X7V A 401       6.633  -5.695  22.591  1.00  0.00     0.028 A
HETATM   27  O07 X7V A 401       5.598  -5.015  20.733  1.00  0.00    -0.312 OA
ENDBRANCH  10  23
ENDBRANCH   7   8
BRANCH   7  28
HETATM   28  C16 X7V A 401       7.115   1.083  21.348  1.00  0.00     0.224 C
HETATM   29  N17 X7V A 401       6.905   2.328  22.168  1.00  0.00    -0.250 N
HETATM   30  H17 X7V A 401       6.016   2.529  22.625  1.00  0.00     0.131 HD
HETATM   31  O26 X7V A 401       8.182   0.866  20.821  1.00  0.00    -0.277 OA
BRANCH  29  32
HETATM   32  C18 X7V A 401       8.067   3.245  22.272  1.00  0.00     0.088 C
HETATM   33  C19 X7V A 401       7.700   4.564  22.880  1.00  0.00     0.029 C
BRANCH  32  34
HETATM   34  C20 X7V A 401       9.243   2.551  23.039  1.00  0.00    -0.030 A
HETATM   35  C24 X7V A 401      10.090   1.246  24.909  1.00  0.00     0.000 A
HETATM   36  C22 X7V A 401      11.632   2.014  23.189  1.00  0.00     0.000 A
HETATM   37  C25 X7V A 401       9.014   1.872  24.217  1.00  0.00     0.005 A
HETATM   38  C21 X7V A 401      10.559   2.624  22.506  1.00  0.00     0.005 A
HETATM   39  C23 X7V A 401      11.387   1.323  24.380  1.00  0.00     0.000 A
ENDBRANCH  32  34
ENDBRANCH  29  32
ENDBRANCH   7  28
ENDBRANCH   1   7
TORSDOF 8
