MODEL        1
REMARK THIS MODEL IS IDENTICAL TO THE INPUT LIGAND AND NOT FROM DOCKING
REMARK 921   NORMALIZED FREE ENERGY PREDICTED BY IDOCK:    0.48 KCAL/MOL
REMARK 922        TOTAL FREE ENERGY PREDICTED BY IDOCK:    0.52 KCAL/MOL
REMARK 923 INTER-LIGAND FREE ENERGY PREDICTED BY IDOCK:    0.54 KCAL/MOL
REMARK 924 INTRA-LIGAND FREE ENERGY PREDICTED BY IDOCK:   -0.02 KCAL/MOL
REMARK 927      BINDING AFFINITY PREDICTED BY RF-SCORE:    0.00 PKD
ROOT
HETATM    1  N1  T71 A 404       7.171  -3.379  21.057  1.00  0.00    -0.151 N  
HETATM    2  C12 T71 A 404       6.648  -3.523  19.818  1.00  0.00     1.148 C  
HETATM    3  C10 T71 A 404       6.714  -4.199  22.180  1.00  0.00    -0.277 C  
HETATM    4  O2  T71 A 404       5.757  -4.325  19.566  1.00  0.00    -0.777 OA 
HETATM    5  C13 T71 A 404       7.224  -2.678  18.714  1.00  0.00     4.203 C  
HETATM    6  C11 T71 A 404       6.285  -3.316  23.319  1.00  0.00    -0.266 C  
HETATM    7  N   T71 A 404       7.437  -2.490  23.705  1.00  0.00    -0.235 N  
HETATM    8  C8  T71 A 404       7.854  -1.598  22.612  1.00  0.00    -0.258 C  
HETATM    9  C9  T71 A 404       8.240  -2.442  21.423  1.00  0.00    -0.191 C  
ENDROOT
BRANCH   7  10
HETATM   10  S   T71 A 404       7.474  -1.932  25.245  1.00  0.00    -0.204 S  
HETATM   11  O   T71 A 404       8.595  -1.053  25.359  1.00  0.00    -0.195 OA 
HETATM   12  O1  T71 A 404       6.161  -1.449  25.543  1.00  0.00    -0.133 OA 
BRANCH  10  13
HETATM   13  C6  T71 A 404       7.783  -3.349  26.256  1.00  0.00    -0.238 A  
HETATM   14  C4  T71 A 404       8.942  -4.112  26.060  1.00  0.00    -0.304 A  
HETATM   15  C5  T71 A 404       9.993  -3.801  25.029  1.00  0.00    -0.314 C  
HETATM   16  C3  T71 A 404       9.127  -5.224  26.877  1.00  0.00    -0.480 A  
HETATM   17  C2  T71 A 404       8.194  -5.566  27.841  1.00  0.00    -0.061 A  
HETATM   18  C1  T71 A 404       7.047  -4.815  28.028  1.00  0.00    -0.212 A  
HETATM   19  C7  T71 A 404       6.849  -3.705  27.219  1.00  0.00    -0.251 A  
HETATM   20  C   T71 A 404       6.034  -5.192  29.080  1.00  0.00    -0.266 C  
ENDBRANCH  10  13
ENDBRANCH   7  10
TORSDOF 2
ENDMDL
