REMARK  1 active torsions:
REMARK  status: ('A' for Active; 'I' for Inactive)
REMARK    1  A    between atoms: C3_6  and  C6_7
ROOT
HETATM    1  C4  3WL A 401     -32.824 -67.070  38.188  1.00  0.00     0.010 A
HETATM    2  C5  3WL A 401     -33.117 -68.160  37.392  1.00  0.00     0.001 A
HETATM    3  C   3WL A 401     -33.848 -69.211  37.897  1.00  0.00     0.000 A
HETATM    4  C1  3WL A 401     -34.291 -69.180  39.199  1.00  0.00     0.001 A
HETATM    5  C2  3WL A 401     -34.008 -68.094  40.004  1.00  0.00     0.010 A
HETATM    6  C3  3WL A 401     -33.259 -67.025  39.511  1.00  0.00     0.006 A
ENDROOT
BRANCH   6   7
HETATM    7  C6  3WL A 401     -32.957 -65.868  40.363  1.00  0.00     0.094 C
HETATM    8  C7  3WL A 401     -31.993 -64.965  40.100  1.00  0.00     0.085 C
HETATM    9  C8  3WL A 401     -31.732 -63.850  40.962  1.00  0.00     0.194 C
HETATM   10  C9  3WL A 401     -32.594 -63.754  42.129  1.00  0.00     0.084 A
HETATM   11  O   3WL A 401     -30.831 -63.018  40.722  1.00  0.00    -0.287 OA
HETATM   12  C10 3WL A 401     -32.487 -62.720  43.083  1.00  0.00     0.118 A
HETATM   13  O4  3WL A 401     -31.553 -61.754  42.930  1.00  0.00    -0.357 OA
HETATM   14  C11 3WL A 401     -33.336 -62.682  44.166  1.00  0.00     0.133 A
HETATM   15  O3  3WL A 401     -33.203 -61.662  45.063  1.00  0.00    -0.355 OA
HETATM   16  C12 3WL A 401     -34.313 -63.674  44.339  1.00  0.00     0.107 A
HETATM   17  H4  3WL A 401     -31.481 -61.058  43.572  1.00  0.00     0.217 HD
HETATM   18  O2  3WL A 401     -35.131 -63.608  45.416  1.00  0.00    -0.357 OA
HETATM   19  H3  3WL A 401     -33.789 -61.636  45.810  1.00  0.00     0.218 HD
HETATM   20  C13 3WL A 401     -34.439 -64.702  43.421  1.00  0.00     0.069 A
HETATM   21  C14 3WL A 401     -33.582 -64.722  42.340  1.00  0.00     0.099 A
HETATM   22  H2  3WL A 401     -35.045 -62.902  46.046  1.00  0.00     0.217 HD
HETATM   23  O1  3WL A 401     -33.755 -65.764  41.461  1.00  0.00    -0.308 OA
ENDBRANCH   6   7
TORSDOF 1
