MODEL        1
REMARK THIS MODEL IS IDENTICAL TO THE INPUT LIGAND AND NOT FROM DOCKING
REMARK 921   NORMALIZED FREE ENERGY PREDICTED BY IDOCK:   -3.96 KCAL/MOL
REMARK 922        TOTAL FREE ENERGY PREDICTED BY IDOCK:   -6.67 KCAL/MOL
REMARK 923 INTER-LIGAND FREE ENERGY PREDICTED BY IDOCK:   -6.04 KCAL/MOL
REMARK 924 INTRA-LIGAND FREE ENERGY PREDICTED BY IDOCK:   -0.62 KCAL/MOL
REMARK 927      BINDING AFFINITY PREDICTED BY RF-SCORE:    0.00 PKD
ROOT
HETATM    1  N1  UJ4 A 405       8.066   2.064  22.671  1.00  0.00    -0.207 N  
HETATM    2  C4  UJ4 A 405       8.353   1.224  21.646  1.00  0.00    -0.307 C  
HETATM    3  O1  UJ4 A 405       9.378   1.300  20.979  1.00  0.00    -0.419 OA 
HETATM    4  H1  UJ4 A 405       7.246   1.841  23.236  1.00  0.00     0.000 HD 
ENDROOT
BRANCH   1   5
HETATM    5  C5  UJ4 A 405       8.800   3.226  23.032  1.00  0.00    -0.241 A  
HETATM    6  C11 UJ4 A 405       9.037   5.620  23.033  1.00  0.00    -0.142 A  
HETATM    7  C6  UJ4 A 405       9.974   3.096  23.804  1.00  0.00    -0.292 A  
HETATM    8  C12 UJ4 A 405       8.340   4.487  22.648  1.00  0.00    -0.105 A  
HETATM    9  C8  UJ4 A 405      10.638   4.251  24.198  1.00  0.00    -0.350 A  
HETATM   10  C7  UJ4 A 405      10.536   1.755  24.197  1.00  0.00    -0.374 C  
HETATM   11  C9  UJ4 A 405      10.172   5.501  23.822  1.00  0.00    -0.257 A  
BRANCH  11  12
HETATM   12  O2  UJ4 A 405      10.785   6.665  24.219  1.00  0.00    -0.254 OA 
HETATM   13  C10 UJ4 A 405      11.939   6.583  25.064  1.00  0.00    -0.351 C  
ENDBRANCH  11  12
ENDBRANCH   1   5
BRANCH   2  14
HETATM   14  C3  UJ4 A 405       7.277   0.180  21.300  1.00  0.00    -0.283 C  
BRANCH  14  15
HETATM   15  C13 UJ4 A 405       6.610   0.476  19.963  1.00  0.00    -0.363 A  
HETATM   16  C15 UJ4 A 405       5.512   1.084  17.533  1.00  0.00    -0.586 A  
HETATM   17  C17 UJ4 A 405       5.397   1.147  19.903  1.00  0.00    -0.498 A  
HETATM   18  C16 UJ4 A 405       4.838   1.464  18.679  1.00  0.00    -0.554 A  
HETATM   19  N2  UJ4 A 405       6.681   0.435  17.551  1.00  0.00    -0.454 NA 
HETATM   20  C14 UJ4 A 405       7.203   0.146  18.750  1.00  0.00    -0.521 A  
ENDBRANCH  14  15
BRANCH  14  21
HETATM   21  N   UJ4 A 405       7.559  -1.259  21.575  1.00  0.00    -0.305 N  
HETATM   22  C2  UJ4 A 405       6.732  -2.280  21.196  1.00  0.00     0.195 C  
HETATM   23  O   UJ4 A 405       5.680  -2.073  20.620  1.00  0.00    -0.425 OA 
BRANCH  21  24
HETATM   24  C18 UJ4 A 405       8.753  -1.502  22.340  1.00  0.00    -0.282 A  
HETATM   25  C21 UJ4 A 405      11.122  -1.694  23.824  1.00  0.00    -0.359 A  
HETATM   26  C19 UJ4 A 405       9.975  -1.699  21.699  1.00  0.00    -0.294 A  
HETATM   27  C20 UJ4 A 405      11.142  -1.791  22.439  1.00  0.00    -0.396 A  
HETATM   28  C22 UJ4 A 405       9.892  -1.574  24.458  1.00  0.00    -0.261 A  
HETATM   29  C23 UJ4 A 405       8.718  -1.466  23.732  1.00  0.00    -0.238 A  
BRANCH  25  30
HETATM   30  C24 UJ4 A 405      12.406  -1.524  24.602  1.00  0.00    -0.356 C  
HETATM   31  C25 UJ4 A 405      13.361  -0.556  23.938  1.00  0.00    -0.603 C  
BRANCH  30  32
HETATM   32  O3  UJ4 A 405      13.152  -2.730  24.643  1.00  0.00    -0.350 OA 
HETATM   33  C26 UJ4 A 405      13.000  -3.423  25.872  1.00  0.00    -0.508 C  
ENDBRANCH  30  32
ENDBRANCH  25  30
ENDBRANCH  21  24
BRANCH  22  34
HETATM   34  C1  UJ4 A 405       7.150  -3.697  21.495  1.00  0.00     0.761 C  
HETATM   35  C   UJ4 A 405       7.152  -4.536  20.243  1.00  0.00     3.933 C  
ENDBRANCH  22  34
ENDBRANCH  14  21
ENDBRANCH   2  14
TORSDOF 9
ENDMDL
