MODEL        1
REMARK THIS MODEL IS IDENTICAL TO THE INPUT LIGAND AND NOT FROM DOCKING
REMARK 921   NORMALIZED FREE ENERGY PREDICTED BY IDOCK:   -2.90 KCAL/MOL
REMARK 922        TOTAL FREE ENERGY PREDICTED BY IDOCK:   -7.75 KCAL/MOL
REMARK 923 INTER-LIGAND FREE ENERGY PREDICTED BY IDOCK:   -5.27 KCAL/MOL
REMARK 924 INTRA-LIGAND FREE ENERGY PREDICTED BY IDOCK:   -2.48 KCAL/MOL
REMARK 927      BINDING AFFINITY PREDICTED BY RF-SCORE:    0.00 PKD
ROOT
HETATM    1  CBN SV6 A 402      11.868   8.331  26.508  1.00  0.00    -0.254 A  
HETATM    2  NAF SV6 A 402      12.255   7.423  27.437  1.00  0.00    -0.148 NA 
HETATM    3  NAG SV6 A 402      12.140  10.195  28.020  1.00  0.00    -0.172 NA 
HETATM    4  CBO SV6 A 402      12.601   7.915  28.648  1.00  0.00    -0.157 A  
HETATM    5  CBQ SV6 A 402      11.782   9.715  26.804  1.00  0.00    -0.229 A  
HETATM    6  CBP SV6 A 402      12.539   9.293  28.937  1.00  0.00    -0.190 A  
ENDROOT
BRANCH   1   7
HETATM    7  CBB SV6 A 402      11.438   7.822  25.163  1.00  0.00    -0.283 C  
HETATM    8  HAD SV6 A 402      11.454   5.847  25.773  1.00  0.00     0.000 HD 
HETATM    9  NAD SV6 A 402      11.249   6.474  24.995  1.00  0.00    -0.256 N  
HETATM   10  OBW SV6 A 402      11.228   8.612  24.257  1.00  0.00     0.261 OA 
BRANCH   9  11
HETATM   11  CAY SV6 A 402      10.764   5.907  23.739  1.00  0.00    -0.292 C  
BRANCH  11  12
HETATM   12  CBH SV6 A 402      11.899   5.320  22.824  1.00  0.00    -0.364 C  
HETATM   13  CBK SV6 A 402      14.770   4.850  22.063  1.00  0.00    -0.419 C  
HETATM   14  CBI SV6 A 402      12.734   4.229  23.514  1.00  0.00    -0.407 C  
HETATM   15  CBM SV6 A 402      12.849   6.403  22.281  1.00  0.00    -0.495 C  
HETATM   16  CBL SV6 A 402      13.874   5.824  21.322  1.00  0.00    -0.683 C  
HETATM   17  CBJ SV6 A 402      13.951   3.745  22.725  1.00  0.00    -0.467 C  
ENDBRANCH  11  12
BRANCH  11  18
HETATM   18  CAX SV6 A 402       9.938   4.720  24.290  1.00  0.00    -0.255 C  
HETATM   19  OBU SV6 A 402      10.132   4.285  25.449  1.00  0.00    -0.368 OA 
HETATM   20  NAC SV6 A 402       8.985   4.126  23.483  1.00  0.00    -0.427 N  
HETATM   21  HAC SV6 A 402       8.807   4.484  22.544  1.00  0.00     0.000 HD 
BRANCH  20  22
HETATM   22  CAW SV6 A 402       8.244   2.990  23.988  1.00  0.00    -0.206 C  
BRANCH  22  23
HETATM   23  CAZ SV6 A 402       6.696   3.306  23.908  1.00  0.00    -0.139 C  
HETATM   24  CBA SV6 A 402       6.235   3.720  22.505  1.00  0.00    -0.322 C  
HETATM   25  CBD SV6 A 402       6.343   4.479  24.846  1.00  0.00    -0.134 C  
HETATM   26  CBC SV6 A 402       5.909   2.077  24.375  1.00  0.00    -0.123 C  
ENDBRANCH  22  23
BRANCH  22  27
HETATM   27  CAV SV6 A 402       8.636   1.707  23.172  1.00  0.00    -0.249 C  
HETATM   28  N   SV6 A 402       9.272   0.611  23.750  1.00  0.00    -0.216 N  
HETATM   29  CA  SV6 A 402       9.637  -0.628  23.052  1.00  0.00    -0.345 C  
HETATM   30  OBT SV6 A 402       8.432   1.665  21.958  1.00  0.00    -0.382 OA 
HETATM   31  CB  SV6 A 402      10.651  -1.359  23.961  1.00  0.00    -0.457 C  
HETATM   32  CG  SV6 A 402      10.819  -0.446  25.187  1.00  0.00    -0.352 C  
HETATM   33  CD2 SV6 A 402      12.135   0.316  24.991  1.00  0.00    -0.458 C  
HETATM   34  CBE SV6 A 402      12.024  -1.439  23.303  1.00  0.00    -0.536 C  
HETATM   35  CD1 SV6 A 402       9.591   0.470  25.174  1.00  0.00    -0.264 C  
HETATM   36  CBF SV6 A 402      12.695  -0.102  23.629  1.00  0.00    -0.505 C  
BRANCH  29  37
HETATM   37  C   SV6 A 402       8.321  -1.418  22.991  1.00  0.00    -0.317 C  
HETATM   38  HAE SV6 A 402       8.272  -1.516  20.897  1.00  0.00     0.000 HD 
HETATM   39  NAE SV6 A 402       7.781  -1.748  21.761  1.00  0.00     0.252 N  
HETATM   40  O   SV6 A 402       7.711  -1.694  24.017  1.00  0.00    -0.181 OA 
BRANCH  39  41
HETATM   41  CAH SV6 A 402       6.492  -2.436  21.726  1.00  0.00     0.814 C  
BRANCH  41  42
HETATM   42  CAJ SV6 A 402       5.453  -1.622  20.908  1.00  0.00     0.152 C  
BRANCH  42  43
HETATM   43  CAK SV6 A 402       5.433  -0.118  21.211  1.00  0.00    -0.292 C  
HETATM   44  CAL SV6 A 402       4.039   0.500  21.072  1.00  0.00    -0.392 C  
ENDBRANCH  42  43
ENDBRANCH  41  42
BRANCH  41  45
HETATM   45  CAI SV6 A 402       6.670  -3.856  21.101  1.00  0.00     4.043 C  
HETATM   46  OBR SV6 A 402       7.605  -4.540  21.882  1.00  0.00     1.038 OA 
HETATM   47  HBR SV6 A 402       7.713  -5.404  21.502  1.00  0.00     0.000 HD 
BRANCH  45  48
HETATM   48  CAM SV6 A 402       5.344  -4.638  21.118  1.00  0.00     1.021 C  
HETATM   49  HAA SV6 A 402       5.691  -5.302  23.039  1.00  0.00     0.000 HD 
HETATM   50  NAA SV6 A 402       5.019  -5.337  22.273  1.00  0.00    -0.340 N  
HETATM   51  OBS SV6 A 402       4.606  -4.585  20.138  1.00  0.00    -0.131 OA 
BRANCH  50  52
HETATM   52  CAN SV6 A 402       3.826  -6.103  22.488  1.00  0.00    -0.229 C  
HETATM   53  CAO SV6 A 402       3.397  -6.420  23.918  1.00  0.00    -0.283 C  
HETATM   54  CAP SV6 A 402       2.610  -5.414  23.110  1.00  0.00    -0.129 C  
ENDBRANCH  50  52
ENDBRANCH  45  48
ENDBRANCH  41  45
ENDBRANCH  39  41
ENDBRANCH  29  37
ENDBRANCH  22  27
ENDBRANCH  20  22
ENDBRANCH  11  18
ENDBRANCH   9  11
ENDBRANCH   1   7
TORSDOF 14
ENDMDL
