REMARK 13 active torsions:
REMARK  status: ('A' for Active; 'I' for Inactive)
REMARK    1  A    between atoms: C4_4  and  C7_7
REMARK    2  A    between atoms: C7_7  and  O8_8
REMARK    3  A    between atoms: O8_8  and  C9_9
REMARK    4  A    between atoms: N10_10  and  C11_13
REMARK    5  A    between atoms: C11_13  and  C12_17
REMARK    6  A    between atoms: N13_19  and  C14_21
REMARK    7  A    between atoms: C14_21  and  C15_22
REMARK    8  A    between atoms: C14_21  and  C34_37
REMARK    9  A    between atoms: C34_37  and  C8_38
REMARK   10  A    between atoms: N16_25  and  C17_26
REMARK   11  A    between atoms: C17_26  and  C19_27
REMARK   12  A    between atoms: C17_26  and  C25_34
REMARK   13  A    between atoms: C19_27  and  C20_28
ROOT
HETATM    1  C1  VHM A 401      44.343  11.177 -17.360  1.00  0.00     0.000 A
HETATM    2  C2  VHM A 401      43.013  11.212 -17.740  1.00  0.00     0.000 A
HETATM    3  C3  VHM A 401      42.308  10.040 -17.981  1.00  0.00     0.006 A
HETATM    4  C4  VHM A 401      42.936   8.812 -17.851  1.00  0.00    -0.021 A
HETATM    5  C5  VHM A 401      44.274   8.765 -17.478  1.00  0.00     0.006 A
HETATM    6  C6  VHM A 401      44.968   9.946 -17.240  1.00  0.00     0.000 A
ENDROOT
BRANCH   4   7
HETATM    7  C7  VHM A 401      42.151   7.553 -18.139  1.00  0.00     0.207 C
BRANCH   7   8
HETATM    8  O8  VHM A 401      41.590   6.975 -16.979  1.00  0.00    -0.298 OA
BRANCH   8   9
HETATM    9  C9  VHM A 401      42.328   5.921 -16.320  1.00  0.00     0.339 C
HETATM   10  N10 VHM A 401      42.130   5.793 -15.024  1.00  0.00    -0.222 N
HETATM   11  O29 VHM A 401      43.076   5.202 -16.963  1.00  0.00    -0.245 OA
HETATM   12  H10 VHM A 401      41.460   6.402 -14.555  1.00  0.00     0.133 HD
BRANCH  10  13
HETATM   13  C11 VHM A 401      42.846   4.806 -14.263  1.00  0.00     0.148 C
HETATM   14  C32 VHM A 401      43.835   4.460 -11.988  1.00  0.00     0.009 C
HETATM   15  C30 VHM A 401      42.882   5.295 -12.832  1.00  0.00     0.009 C
HETATM   16  C31 VHM A 401      43.216   6.781 -12.841  1.00  0.00     0.009 C
BRANCH  13  17
HETATM   17  C12 VHM A 401      42.110   3.513 -14.293  1.00  0.00     0.219 C
HETATM   18  O33 VHM A 401      40.957   3.459 -13.913  1.00  0.00    -0.278 OA
HETATM   19  N13 VHM A 401      42.785   2.469 -14.744  1.00  0.00    -0.246 N
HETATM   20  H13 VHM A 401      43.706   2.609 -15.160  1.00  0.00     0.131 HD
BRANCH  19  21
HETATM   21  C14 VHM A 401      42.240   1.132 -14.658  1.00  0.00     0.144 C
BRANCH  21  22
HETATM   22  C15 VHM A 401      42.097   0.716 -13.229  1.00  0.00     0.218 C
HETATM   23  H16 VHM A 401      40.134   0.251 -13.516  1.00  0.00     0.131 HD
HETATM   24  O38 VHM A 401      43.053   0.797 -12.473  1.00  0.00    -0.278 OA
HETATM   25  N16 VHM A 401      40.904   0.267 -12.847  1.00  0.00    -0.252 N
BRANCH  25  26
HETATM   26  C17 VHM A 401      40.685  -0.200 -11.489  1.00  0.00     0.087 C
BRANCH  26  27
HETATM   27  C19 VHM A 401      39.578   0.630 -10.842  1.00  0.00     0.038 C
BRANCH  27  28
HETATM   28  C20 VHM A 401      40.020   2.089 -10.750  1.00  0.00     0.105 C
HETATM   29  C21 VHM A 401      41.122   2.260  -9.709  1.00  0.00     0.006 C
HETATM   30  C22 VHM A 401      40.738   3.498  -8.903  1.00  0.00     0.111 C
HETATM   31  N23 VHM A 401      39.379   3.799  -9.304  1.00  0.00    -0.221 NA
HETATM   32  C24 VHM A 401      38.931   2.992 -10.259  1.00  0.00     0.253 C
HETATM   33  O26 VHM A 401      37.792   2.969 -10.693  1.00  0.00    -0.270 OA
ENDBRANCH  27  28
ENDBRANCH  26  27
BRANCH  26  34
HETATM   34  C25 VHM A 401      40.399  -1.704 -11.503  1.00  0.00     0.175 C
HETATM   35  O27 VHM A 401      40.303  -2.239 -10.187  1.00  0.00    -0.393 OA
HETATM   36  H27 VHM A 401      40.126  -3.172 -10.196  1.00  0.00     0.209 HD
ENDBRANCH  26  34
ENDBRANCH  25  26
ENDBRANCH  21  22
BRANCH  21  37
HETATM   37  C34 VHM A 401      43.193   0.176 -15.355  1.00  0.00     0.031 C
BRANCH  37  38
HETATM   38  C8  VHM A 401      42.729  -0.160 -16.767  1.00  0.00    -0.009 C
HETATM   39  C10 VHM A 401      42.298   1.088 -17.529  1.00  0.00     0.003 C
HETATM   40  C16 VHM A 401      42.515  -0.492 -19.490  1.00  0.00     0.000 C
HETATM   41  C23 VHM A 401      43.880  -0.866 -17.474  1.00  0.00     0.003 C
HETATM   42  C13 VHM A 401      41.818   0.748 -18.935  1.00  0.00     0.000 C
HETATM   43  C18 VHM A 401      43.937  -0.594 -18.972  1.00  0.00     0.000 C
ENDBRANCH  37  38
ENDBRANCH  21  37
ENDBRANCH  19  21
ENDBRANCH  13  17
ENDBRANCH  10  13
ENDBRANCH   8   9
ENDBRANCH   7   8
ENDBRANCH   4   7
TORSDOF 13
