REMARK 10 active torsions:
REMARK  status: ('A' for Active; 'I' for Inactive)
REMARK    1  A    between atoms: C02_1  and  C03_4
REMARK    2  A    between atoms: C02_1  and  C12_13
REMARK    3  A    between atoms: C12_13  and  N20_14
REMARK    4  A    between atoms: C12_13  and  C13_39
REMARK    5  A    between atoms: C13_39  and  C14_40
REMARK    6  A    between atoms: C21_17  and  C22_18
REMARK    7  A    between atoms: C22_18  and  N27_19
REMARK    8  A    between atoms: C22_18  and  C23_35
REMARK    9  A    between atoms: C28_22  and  C29_23
REMARK   10  A    between atoms: C32_30  and  O33_33
ROOT
HETATM    1  C02 V7G A 401       7.679  30.320  20.069  1.00  0.00     0.187 C
HETATM    2  O01 V7G A 401       8.375  30.857  18.987  1.00  0.00    -0.384 OA
HETATM    3  H01 V7G A 401       8.206  31.784  18.864  1.00  0.00     0.210 HD
ENDROOT
BRANCH   1   4
HETATM    4  C03 V7G A 401       8.127  31.052  21.340  1.00  0.00     0.109 A
HETATM    5  N04 V7G A 401       9.458  31.098  21.671  1.00  0.00    -0.241 NA
HETATM    6  C06 V7G A 401      10.850  32.065  23.505  1.00  0.00     0.029 A
HETATM    7  S11 V7G A 401       7.156  31.830  22.490  1.00  0.00    -0.069 SA
HETATM    8  C09 V7G A 401       8.499  33.039  24.685  1.00  0.00     0.017 A
HETATM    9  C07 V7G A 401      10.915  32.783  24.691  1.00  0.00     0.002 A
HETATM   10  C05 V7G A 401       9.591  31.843  22.900  1.00  0.00     0.079 A
HETATM   11  C10 V7G A 401       8.420  32.313  23.483  1.00  0.00     0.039 A
HETATM   12  C08 V7G A 401       9.743  33.263  25.283  1.00  0.00     0.001 A
ENDBRANCH   1   4
BRANCH   1  13
HETATM   13  C12 V7G A 401       7.952  28.825  20.268  1.00  0.00     0.100 C
BRANCH  13  14
HETATM   14  N20 V7G A 401       7.182  28.415  21.416  1.00  0.00    -0.251 N
HETATM   15  H20 V7G A 401       6.169  28.531  21.404  1.00  0.00     0.131 HD
HETATM   16  O41 V7G A 401       8.985  27.669  22.571  1.00  0.00    -0.278 OA
HETATM   17  C21 V7G A 401       7.806  27.850  22.570  1.00  0.00     0.218 C
BRANCH  17  18
HETATM   18  C22 V7G A 401       6.918  27.481  23.745  1.00  0.00     0.144 C
BRANCH  18  19
HETATM   19  N27 V7G A 401       7.347  26.243  24.343  1.00  0.00    -0.242 N
HETATM   20  H27 V7G A 401       7.805  26.236  25.254  1.00  0.00     0.131 HD
HETATM   21  O40 V7G A 401       6.624  25.063  22.538  1.00  0.00    -0.273 OA
HETATM   22  C28 V7G A 401       7.117  25.023  23.631  1.00  0.00     0.243 C
BRANCH  22  23
HETATM   23  C29 V7G A 401       7.546  23.716  24.246  1.00  0.00     0.080 A
HETATM   24  N39 V7G A 401       7.358  22.505  23.728  1.00  0.00    -0.254 NA
HETATM   25  H39 V7G A 401       6.894  22.312  22.841  1.00  0.00     0.134 HD
HETATM   26  C38 V7G A 401       7.882  21.558  24.566  1.00  0.00     0.030 A
HETATM   27  C37 V7G A 401       7.938  20.150  24.460  1.00  0.00     0.020 A
HETATM   28  C36 V7G A 401       8.544  19.416  25.482  1.00  0.00     0.004 A
HETATM   29  C35 V7G A 401       9.092  20.064  26.590  1.00  0.00     0.033 A
HETATM   30  C32 V7G A 401       9.037  21.444  26.694  1.00  0.00     0.084 A
HETATM   31  C31 V7G A 401       8.409  22.191  25.661  1.00  0.00     0.025 A
HETATM   32  C30 V7G A 401       8.205  23.577  25.465  1.00  0.00     0.036 A
BRANCH  30  33
HETATM   33  O33 V7G A 401       9.550  22.161  27.784  1.00  0.00    -0.347 OA
HETATM   34  C34 V7G A 401      10.117  21.398  28.814  1.00  0.00     0.202 C
ENDBRANCH  30  33
ENDBRANCH  22  23
ENDBRANCH  18  19
BRANCH  18  35
HETATM   35  C23 V7G A 401       6.941  28.611  24.786  1.00  0.00     0.031 C
HETATM   36  C25 V7G A 401       6.244  29.389  27.073  1.00  0.00     0.007 C
HETATM   37  C26 V7G A 401       4.544  28.461  25.508  1.00  0.00     0.007 C
HETATM   38  C24 V7G A 401       6.006  28.375  25.958  1.00  0.00    -0.015 C
ENDBRANCH  18  35
ENDBRANCH  17  18
ENDBRANCH  13  14
BRANCH  13  39
HETATM   39  C13 V7G A 401       7.518  28.032  19.056  1.00  0.00     0.058 C
BRANCH  39  40
HETATM   40  C14 V7G A 401       8.129  26.583  19.073  1.00  0.00     0.003 C
HETATM   41  O19 V7G A 401       6.523  25.890  17.271  1.00  0.00    -0.266 OA
HETATM   42  C15 V7G A 401       9.404  26.516  19.019  1.00  0.00     0.083 C
HETATM   43  C16 V7G A 401       9.752  25.060  18.198  1.00  0.00     0.092 C
HETATM   44  N17 V7G A 401       8.755  24.853  17.332  1.00  0.00    -0.222 NA
HETATM   45  C18 V7G A 401       7.582  25.792  17.777  1.00  0.00     0.270 C
ENDBRANCH  39  40
ENDBRANCH  13  39
ENDBRANCH   1  13
TORSDOF 10
