REMARK  2 active torsions:
REMARK  status: ('A' for Active; 'I' for Inactive)
REMARK    1  A    between atoms: N1_1  and  C4_10
REMARK    2  A    between atoms: C4_10  and  C5_11
ROOT
HETATM    1  N1  T81 A 404       8.517  -2.692  23.343  1.00  0.00    -0.295 NA
HETATM    2  C9  T81 A 404       7.620  -3.797  22.983  1.00  0.00     0.100 C
HETATM    3  C3  T81 A 404       8.955  -2.012  22.118  1.00  0.00     0.100 C
HETATM    4  C2  T81 A 404       7.777  -1.519  21.306  1.00  0.00     0.108 C
HETATM    5  C   T81 A 404       7.312  -2.504  18.534  1.00  0.00     0.105 C
HETATM    6  O   T81 A 404       5.787  -3.999  19.579  1.00  0.00    -0.280 OA
HETATM    7  N   T81 A 404       6.901  -2.641  20.975  1.00  0.00    -0.242 N
HETATM    8  C1  T81 A 404       6.598  -3.094  19.738  1.00  0.00     0.200 C
HETATM    9  C10 T81 A 404       6.433  -3.305  22.189  1.00  0.00     0.108 C
ENDROOT
BRANCH   1  10
HETATM   10  C4  T81 A 404       9.680  -3.164  24.124  1.00  0.00     0.127 C
BRANCH  10  11
HETATM   11  C5  T81 A 404       9.351  -4.246  25.109  1.00  0.00     0.005 A
HETATM   12  C6  T81 A 404       9.657  -5.603  24.998  1.00  0.00     0.013 A
HETATM   13  C8  T81 A 404       8.551  -5.571  27.040  1.00  0.00     0.055 A
HETATM   14  C7  T81 A 404       9.335  -6.340  26.161  1.00  0.00     0.023 A
HETATM   15  S   T81 A 404       8.485  -3.924  26.577  1.00  0.00    -0.085 SA
HETATM   16 BR   T81 A 404       7.631  -6.157  28.562  1.00  0.00    -0.043 Br
ENDBRANCH  10  11
ENDBRANCH   1  10
TORSDOF 2
