MODEL        1
REMARK THIS MODEL IS IDENTICAL TO THE INPUT LIGAND AND NOT FROM DOCKING
REMARK 921   NORMALIZED FREE ENERGY PREDICTED BY IDOCK:   -3.75 KCAL/MOL
REMARK 922        TOTAL FREE ENERGY PREDICTED BY IDOCK:   -4.91 KCAL/MOL
REMARK 923 INTER-LIGAND FREE ENERGY PREDICTED BY IDOCK:   -4.62 KCAL/MOL
REMARK 924 INTRA-LIGAND FREE ENERGY PREDICTED BY IDOCK:   -0.28 KCAL/MOL
REMARK 927      BINDING AFFINITY PREDICTED BY RF-SCORE:    0.00 PKD
ROOT
HETATM    1  C13 JGG A 404       4.314   0.960  22.457  1.00  0.00    -0.230 C  
HETATM    2  C12 JGG A 404       5.710   1.567  22.700  1.00  0.00    -0.146 C  
HETATM    3  N11 JGG A 404       6.432   0.874  23.800  1.00  0.00    -0.151 N  
HETATM    4  C16 JGG A 404       5.579   0.759  25.028  1.00  0.00    -0.097 C  
HETATM    5  O14 JGG A 404       3.571   0.992  23.659  1.00  0.00    -0.133 OA 
HETATM    6  C15 JGG A 404       4.146   0.262  24.728  1.00  0.00    -0.154 C  
ENDROOT
BRANCH   3   7
HETATM    7  C09 JGG A 404       7.802   1.371  24.009  1.00  0.00    -0.182 C  
HETATM    8  O10 JGG A 404       8.274   2.370  23.442  1.00  0.00    -0.189 OA 
BRANCH   7   9
HETATM    9  N08 JGG A 404       8.548   0.609  24.910  1.00  0.00    -0.210 N  
HETATM   10  H08 JGG A 404       8.114  -0.200  25.354  1.00  0.00     0.000 HD 
BRANCH   9  11
HETATM   11  C07 JGG A 404       9.933   0.940  25.234  1.00  0.00    -0.301 C  
BRANCH  11  12
HETATM   12  C06 JGG A 404      10.851   0.318  24.220  1.00  0.00    -0.409 A  
HETATM   13  C05 JGG A 404      10.530  -0.926  23.662  1.00  0.00    -0.360 A  
HETATM   14  C04 JGG A 404      11.365  -1.503  22.714  1.00  0.00    -0.434 A  
HETATM   15  C03 JGG A 404      12.524  -0.834  22.328  1.00  0.00    -0.299 A  
HETATM   16  C17 JGG A 404      13.360  -1.406  21.343  1.00  0.00    -0.430 C  
HETATM   17  C02 JGG A 404      12.861   0.401  22.891  1.00  0.00    -0.391 A  
HETATM   18  N18 JGG A 404      14.061  -1.841  20.540  1.00  0.00     0.051 NA 
HETATM   19  C01 JGG A 404      12.014   0.979  23.834  1.00  0.00    -0.561 A  
ENDBRANCH  11  12
ENDBRANCH   9  11
ENDBRANCH   7   9
ENDBRANCH   3   7
TORSDOF 4
ENDMDL
