MODEL        1
REMARK THIS MODEL IS IDENTICAL TO THE INPUT LIGAND AND NOT FROM DOCKING
REMARK 921   NORMALIZED FREE ENERGY PREDICTED BY IDOCK:   -4.10 KCAL/MOL
REMARK 922        TOTAL FREE ENERGY PREDICTED BY IDOCK:   -4.21 KCAL/MOL
REMARK 923 INTER-LIGAND FREE ENERGY PREDICTED BY IDOCK:   -5.05 KCAL/MOL
REMARK 924 INTRA-LIGAND FREE ENERGY PREDICTED BY IDOCK:    0.84 KCAL/MOL
REMARK 927      BINDING AFFINITY PREDICTED BY RF-SCORE:    0.00 PKD
ROOT
HETATM    1  N1  UH4 A1001       7.231  -0.687  20.729  1.00  0.00    -0.278 N  
HETATM    2  H1  UH4 A1001       6.964  -1.596  21.106  1.00  0.00     0.000 HD 
ENDROOT
BRANCH   1   3
HETATM    3  C5  UH4 A1001       8.418  -0.151  21.129  1.00  0.00    -0.351 C  
HETATM    4  O   UH4 A1001       8.848   0.915  20.698  1.00  0.00    -0.598 OA 
BRANCH   3   5
HETATM    5  N   UH4 A1001       9.112  -0.879  22.082  1.00  0.00    -0.262 N  
HETATM    6  H   UH4 A1001       8.730  -1.760  22.426  1.00  0.00     0.000 HD 
BRANCH   5   7
HETATM    7  C4  UH4 A1001      10.329  -0.412  22.572  1.00  0.00    -0.285 A  
HETATM    8  C2  UH4 A1001      12.418  -0.416  23.551  1.00  0.00     0.308 A  
HETATM    9  C1  UH4 A1001      12.408   0.856  23.067  1.00  0.00    -0.406 A  
HETATM   10  C3  UH4 A1001      11.240  -1.144  23.273  1.00  0.00    -0.415 A  
HETATM   11  S   UH4 A1001      10.912   1.189  22.276  1.00  0.00    -0.126 SA 
HETATM   12  C   UH4 A1001      13.494   1.880  23.093  1.00  0.00     0.009 C  
ENDBRANCH   5   7
ENDBRANCH   3   5
ENDBRANCH   1   3
BRANCH   1  13
HETATM   13  C6  UH4 A1001       6.351  -0.060  19.825  1.00  0.00    -0.358 A  
HETATM   14  C7  UH4 A1001       5.220   0.611  20.272  1.00  0.00    -0.472 A  
HETATM   15  C10 UH4 A1001       6.671   0.031  18.471  1.00  0.00    -0.350 A  
HETATM   16  C8  UH4 A1001       4.482   1.366  19.378  1.00  0.00    -0.503 A  
HETATM   17  N2  UH4 A1001       5.958   0.746  17.593  1.00  0.00    -0.812 NA 
HETATM   18  C9  UH4 A1001       4.891   1.407  18.059  1.00  0.00    -0.155 A  
ENDBRANCH   1  13
TORSDOF 4
ENDMDL
