REMARK  1 active torsions:
REMARK  status: ('A' for Active; 'I' for Inactive)
REMARK    1  A    between atoms: C1_2  and  C_7
ROOT
HETATM    1  N1  USA A1001       5.350  -3.331  21.736  1.00  0.00    -0.247 NA
HETATM    2  C1  USA A1001       6.543  -3.338  21.149  1.00  0.00     0.121 A
HETATM    3  H1  USA A1001       4.557  -3.940  21.536  1.00  0.00     0.135 HD
HETATM    4  N2  USA A1001       7.340  -2.385  21.673  1.00  0.00    -0.242 NA
HETATM    5  C2  USA A1001       5.417  -2.324  22.672  1.00  0.00     0.078 A
HETATM    6  C3  USA A1001       6.631  -1.739  22.643  1.00  0.00     0.124 A
ENDROOT
BRANCH   2   7
HETATM    7  C   USA A1001       6.939  -4.238  20.071  1.00  0.00     0.090 C
HETATM    8  H1  USA A1001       6.356  -5.749  18.950  1.00  0.00     0.123 HD
HETATM    9  N   USA A1001       6.079  -5.120  19.704  1.00  0.00    -0.306 NA
HETATM   10  H2  USA A1001       5.162  -5.188  20.146  1.00  0.00     0.123 HD
ENDBRANCH   2   7
TORSDOF 1
