MODEL        1
REMARK THIS MODEL IS IDENTICAL TO THE INPUT LIGAND AND NOT FROM DOCKING
REMARK 921   NORMALIZED FREE ENERGY PREDICTED BY IDOCK:   -4.83 KCAL/MOL
REMARK 922        TOTAL FREE ENERGY PREDICTED BY IDOCK:   -6.24 KCAL/MOL
REMARK 923 INTER-LIGAND FREE ENERGY PREDICTED BY IDOCK:   -6.24 KCAL/MOL
REMARK 924 INTRA-LIGAND FREE ENERGY PREDICTED BY IDOCK:   -0.00 KCAL/MOL
REMARK 927      BINDING AFFINITY PREDICTED BY RF-SCORE:    0.00 PKD
ROOT
HETATM    1  N1  S1W B 401      36.810   0.815  45.323  1.00  0.00    -0.380 NA 
HETATM    2  C7  S1W B 401      35.874   0.558  46.337  1.00  0.00    -0.603 C  
HETATM    3  C8  S1W B 401      36.490   0.558  43.965  1.00  0.00    -0.413 C  
ENDROOT
BRANCH   1   4
HETATM    4  C1  S1W B 401      38.075   1.435  45.648  1.00  0.00    -0.408 A  
HETATM    5  C2  S1W B 401      38.891   1.810  44.682  1.00  0.00    -0.393 A  
HETATM    6  C3  S1W B 401      40.217   2.507  45.046  1.00  0.00    -0.386 A  
HETATM    7  C5  S1W B 401      40.489   2.758  46.292  1.00  0.00    -0.326 A  
HETATM    8  C4  S1W B 401      38.392   1.753  47.093  1.00  0.00    -0.626 A  
HETATM    9  C6  S1W B 401      39.489   2.378  47.373  1.00  0.00    -0.691 A  
BRANCH   6  10
HETATM   10  O1  S1W B 401      41.069   2.906  44.054  1.00  0.00    -0.292 OA 
BRANCH  10  11
HETATM   11  C10 S1W B 401      41.740   1.955  43.295  1.00  0.00    -0.282 A  
HETATM   12  C14 S1W B 401      42.439   2.448  42.352  1.00  0.00    -0.272 A  
HETATM   13  N3  S1W B 401      43.227   1.642  41.501  1.00  0.00    -0.189 NA 
HETATM   14  C11 S1W B 401      43.267   0.377  41.691  1.00  0.00    -0.185 A  
HETATM   15  N4  S1W B 401      42.479  -0.233  42.788  1.00  0.00    -0.025 NA 
HETATM   16  C15 S1W B 401      41.774   0.476  43.530  1.00  0.00    -0.026 A  
BRANCH  14  17
HETATM   17  N2  S1W B 401      44.105  -0.359  40.777  1.00  0.00    -0.106 NA 
HETATM   18  H2  S1W B 401      44.608   0.184  40.076  1.00  0.00     0.000 HD 
BRANCH  17  19
HETATM   19  C9  S1W B 401      44.302  -1.788  40.757  1.00  0.00    -0.084 A  
HETATM   20  C13 S1W B 401      44.846  -2.293  39.664  1.00  0.00    -0.072 A  
HETATM   21  C17 S1W B 401      45.090  -3.783  39.537  1.00  0.00    -0.040 A  
HETATM   22  C18 S1W B 401      44.798  -4.539  40.529  1.00  0.00    -0.038 A  
HETATM   23  C16 S1W B 401      44.183  -3.961  41.775  1.00  0.00    -0.140 A  
HETATM   24  O2  S1W B 401      43.816  -4.789  42.770  1.00  0.00    -0.152 OA 
HETATM   25  C12 S1W B 401      43.917  -2.692  41.870  1.00  0.00    -0.110 A  
HETATM   26  H2  S1W B 401      44.010  -5.716  42.701  1.00  0.00     0.000 HD 
ENDBRANCH  17  19
ENDBRANCH  14  17
ENDBRANCH  10  11
ENDBRANCH   6  10
ENDBRANCH   1   4
TORSDOF 5
ENDMDL
