REMARK  2 active torsions:
REMARK  status: ('A' for Active; 'I' for Inactive)
REMARK    1  A    between atoms: C5_7  and  C4_10
REMARK    2  A    between atoms: N_11  and  C1_14
ROOT
HETATM    1  N1  T8S A 404       6.859  -4.372  21.362  1.00  0.00    -0.245 N
HETATM    2  C10 T8S A 404       6.372  -4.215  20.110  1.00  0.00     0.200 C
HETATM    3  C7  T8S A 404       6.465  -5.502  22.210  1.00  0.00     0.093 C
HETATM    4  C6  T8S A 404       5.801  -5.001  23.468  1.00  0.00     0.028 C
HETATM    5  C11 T8S A 404       6.922  -3.084  19.283  1.00  0.00     0.105 C
HETATM    6  O1  T8S A 404       5.516  -4.955  19.644  1.00  0.00    -0.280 OA
HETATM    7  C5  T8S A 404       6.740  -4.061  24.227  1.00  0.00     0.074 C
HETATM    8  C8  T8S A 404       7.793  -3.455  22.024  1.00  0.00     0.093 C
HETATM    9  C9  T8S A 404       7.187  -2.923  23.301  1.00  0.00     0.028 C
ENDROOT
BRANCH   7  10
HETATM   10  C4  T8S A 404       6.086  -3.487  25.472  1.00  0.00     0.206 C
HETATM   11  N   T8S A 404       6.905  -3.253  26.518  1.00  0.00    -0.245 N
HETATM   12  O   T8S A 404       4.902  -3.134  25.468  1.00  0.00    -0.279 OA
HETATM   13  C3  T8S A 404       7.420  -1.906  26.783  1.00  0.00     0.113 C
BRANCH  11  14
HETATM   14  C1  T8S A 404       7.437  -4.319  27.404  1.00  0.00     0.058 C
HETATM   15  C   T8S A 404       8.882  -4.649  27.087  1.00  0.00     0.024 C
HETATM   16  C2  T8S A 404       6.550  -5.547  27.435  1.00  0.00     0.024 C
ENDBRANCH  11  14
ENDBRANCH   7  10
TORSDOF 2
