MODEL        1
REMARK THIS MODEL IS IDENTICAL TO THE INPUT LIGAND AND NOT FROM DOCKING
REMARK 921   NORMALIZED FREE ENERGY PREDICTED BY IDOCK:    0.55 KCAL/MOL
REMARK 922        TOTAL FREE ENERGY PREDICTED BY IDOCK:    0.70 KCAL/MOL
REMARK 923 INTER-LIGAND FREE ENERGY PREDICTED BY IDOCK:    0.62 KCAL/MOL
REMARK 924 INTRA-LIGAND FREE ENERGY PREDICTED BY IDOCK:    0.08 KCAL/MOL
REMARK 927      BINDING AFFINITY PREDICTED BY RF-SCORE:    0.00 PKD
ROOT
HETATM    1  N1  T84 A 405       8.730  -2.131  23.044  1.00  0.00    -0.242 NA 
HETATM    2  C2  T84 A 405       6.588  -2.861  22.072  1.00  0.00    -0.297 C  
HETATM    3  C9  T84 A 405       9.116  -1.637  21.716  1.00  0.00    -0.417 C  
HETATM    4  C   T84 A 405       7.279  -2.474  18.309  1.00  0.00     4.421 C  
HETATM    5  C10 T84 A 405       7.907  -1.225  20.911  1.00  0.00    -0.285 C  
HETATM    6  O   T84 A 405       5.774  -3.810  19.577  1.00  0.00    -0.888 OA 
HETATM    7  N   T84 A 405       7.007  -2.363  20.765  1.00  0.00    -0.192 N  
HETATM    8  C1  T84 A 405       6.624  -2.927  19.601  1.00  0.00     0.963 C  
HETATM    9  C3  T84 A 405       7.799  -3.253  22.887  1.00  0.00    -0.302 C  
ENDROOT
BRANCH   1  10
HETATM   10  C4  T84 A 405       9.903  -2.543  23.817  1.00  0.00    -0.466 C  
BRANCH  10  11
HETATM   11  C5  T84 A 405      10.985  -1.494  23.815  1.00  0.00    -0.322 A  
HETATM   12  C6  T84 A 405      12.087  -1.424  22.910  1.00  0.00    -0.236 A  
HETATM   13  C7  T84 A 405      12.798  -0.280  23.005  1.00  0.00    -0.277 A  
HETATM   14  S   T84 A 405      12.164   0.741  24.191  1.00  0.00    -0.507 SA 
HETATM   15  C8  T84 A 405      11.020  -0.411  24.686  1.00  0.00    -0.335 A  
ENDBRANCH  10  11
ENDBRANCH   1  10
TORSDOF 2
ENDMDL
