MODEL        1
REMARK THIS MODEL IS IDENTICAL TO THE INPUT LIGAND AND NOT FROM DOCKING
REMARK 921   NORMALIZED FREE ENERGY PREDICTED BY IDOCK:   -3.75 KCAL/MOL
REMARK 922        TOTAL FREE ENERGY PREDICTED BY IDOCK:   -5.41 KCAL/MOL
REMARK 923 INTER-LIGAND FREE ENERGY PREDICTED BY IDOCK:   -5.50 KCAL/MOL
REMARK 924 INTRA-LIGAND FREE ENERGY PREDICTED BY IDOCK:    0.10 KCAL/MOL
REMARK 927      BINDING AFFINITY PREDICTED BY RF-SCORE:    0.00 PKD
ROOT
HETATM    1  N1  UJ1 A 405       7.740   2.064  22.695  1.00  0.00    -0.200 N  
HETATM    2  H1  UJ1 A 405       6.971   1.775  23.300  1.00  0.00     0.000 HD 
HETATM    3  O1  UJ1 A 405       9.154   1.367  21.041  1.00  0.00    -0.655 OA 
HETATM    4  C4  UJ1 A 405       8.131   1.230  21.708  1.00  0.00    -0.303 C  
ENDROOT
BRANCH   1   5
HETATM    5  C5  UJ1 A 405       8.351   3.328  22.930  1.00  0.00    -0.241 A  
HETATM    6  C6  UJ1 A 405       9.587   3.386  23.596  1.00  0.00    -0.310 A  
HETATM    7  C10 UJ1 A 405       9.570   5.783  23.303  1.00  0.00    -0.356 A  
HETATM    8  C13 UJ1 A 405       6.346   4.427  21.825  1.00  0.00    -0.309 C  
HETATM    9  C9  UJ1 A 405      10.177   4.634  23.781  1.00  0.00    -0.322 A  
HETATM   10  C12 UJ1 A 405       7.714   4.482  22.458  1.00  0.00    -0.282 A  
HETATM   11  C11 UJ1 A 405       8.358   5.703  22.641  1.00  0.00    -0.236 A  
BRANCH   6  12
HETATM   12  C7  UJ1 A 405      10.295   2.143  24.091  1.00  0.00    -0.372 C  
HETATM   13  C8  UJ1 A 405       9.633   1.421  25.262  1.00  0.00    -0.410 C  
ENDBRANCH   6  12
ENDBRANCH   1   5
BRANCH   4  14
HETATM   14  C3  UJ1 A 405       7.137   0.098  21.404  1.00  0.00    -0.297 C  
BRANCH  14  15
HETATM   15  N   UJ1 A 405       7.621  -1.254  21.755  1.00  0.00    -0.299 N  
HETATM   16  O   UJ1 A 405       5.700  -2.270  21.171  1.00  0.00    -0.181 OA 
HETATM   17  C2  UJ1 A 405       6.871  -2.398  21.480  1.00  0.00     0.021 C  
BRANCH  15  18
HETATM   18  C19 UJ1 A 405       8.832  -1.333  22.469  1.00  0.00    -0.260 A  
HETATM   19  C21 UJ1 A 405      10.897  -1.381  23.226  1.00  0.00    -0.338 A  
HETATM   20  N3  UJ1 A 405      10.119  -1.241  24.298  1.00  0.00     0.416 NA 
HETATM   21  N4  UJ1 A 405       8.848  -1.223  23.802  1.00  0.00    -0.227 NA 
HETATM   22  H3  UJ1 A 405      10.409  -1.164  25.273  1.00  0.00     0.000 HD 
HETATM   23  C20 UJ1 A 405      10.132  -1.445  22.046  1.00  0.00    -0.443 A  
BRANCH  19  24
HETATM   24  C22 UJ1 A 405      12.405  -1.460  23.388  1.00  0.00    -0.450 C  
HETATM   25  C23 UJ1 A 405      12.939  -0.151  23.970  1.00  0.00    -0.613 C  
HETATM   26  C24 UJ1 A 405      12.771  -2.589  24.354  1.00  0.00    -0.552 C  
HETATM   27  C25 UJ1 A 405      13.060  -1.718  22.028  1.00  0.00    -0.414 C  
ENDBRANCH  19  24
ENDBRANCH  15  18
BRANCH  17  28
HETATM   28  C1  UJ1 A 405       7.537  -3.743  21.520  1.00  0.00     0.754 C  
HETATM   29  C   UJ1 A 405       7.311  -4.470  20.235  1.00  0.00     4.029 C  
ENDBRANCH  17  28
ENDBRANCH  14  15
BRANCH  14  30
HETATM   30  C14 UJ1 A 405       6.490   0.271  20.042  1.00  0.00    -0.360 A  
HETATM   31  C18 UJ1 A 405       5.285   0.945  19.908  1.00  0.00    -0.524 A  
HETATM   32  C15 UJ1 A 405       7.157  -0.060  18.871  1.00  0.00    -0.513 A  
HETATM   33  N2  UJ1 A 405       6.735   0.269  17.644  1.00  0.00    -0.343 NA 
HETATM   34  C16 UJ1 A 405       5.585   0.947  17.555  1.00  0.00    -0.445 A  
HETATM   35  C17 UJ1 A 405       4.824   1.298  18.653  1.00  0.00    -0.466 A  
ENDBRANCH  14  30
ENDBRANCH   4  14
TORSDOF 8
ENDMDL
