REMARK  1 active torsions:
REMARK  status: ('A' for Active; 'I' for Inactive)
REMARK    1  A    between atoms: C09_9  and  S12_12
ROOT
HETATM    1  C10 RZJ A1001      11.683   2.075  23.772  1.00  0.00     0.142 A
HETATM    2  C11 RZJ A1001      12.362   0.858  23.549  1.00  0.00     0.038 A
HETATM    3  C06 RZJ A1001      13.584   0.878  22.863  1.00  0.00    -0.027 A
HETATM    4  C05 RZJ A1001      14.313  -0.477  22.623  1.00  0.00     0.038 C
HETATM    5  C07 RZJ A1001      14.140   2.085  22.389  1.00  0.00     0.023 A
HETATM    6  C08 RZJ A1001      13.470   3.289  22.607  1.00  0.00     0.123 A
HETATM    7  C04 RZJ A1001      13.320  -1.595  22.359  1.00  0.00     0.020 C
HETATM    8  C03 RZJ A1001      12.120  -1.626  23.279  1.00  0.00     0.090 C
HETATM    9  C09 RZJ A1001      12.240   3.265  23.301  1.00  0.00    -0.587 A
HETATM   10  C01 RZJ A1001      10.633  -0.437  24.836  1.00  0.00     0.110 C
HETATM   11  N02 RZJ A1001      11.828  -0.432  24.020  1.00  0.00    -0.276 NA
ENDROOT
BRANCH   9  12
HETATM   12  S12 RZJ A1001      11.334   4.788  23.619  1.00  0.00     2.574 S
HETATM   13  O14 RZJ A1001      10.039   4.774  22.924  1.00  0.00    -0.924 OA
HETATM   14  N15 RZJ A1001      12.293   6.143  23.218  1.00  0.00    -0.931 N
HETATM   15  O13 RZJ A1001      10.920   4.766  25.023  1.00  0.00    -0.924 OA
HETATM   16 1H15 RZJ A1001      11.780   7.006  23.398  1.00  0.00     0.255 HD
HETATM   17 2H15 RZJ A1001      13.244   6.096  22.851  1.00  0.00     0.255 HD
ENDBRANCH   9  12
TORSDOF 1
