REMARK  4 active torsions:
REMARK  status: ('A' for Active; 'I' for Inactive)
REMARK    1  A    between atoms: C17_3  and  C15_9
REMARK    2  A    between atoms: N14_10  and  C13_13
REMARK    3  A    between atoms: C9_14  and  C7_19
REMARK    4  A    between atoms: N6_22  and  C5_23
ROOT
HETATM    1 CL1  LZE A 401      17.912   5.061  -6.784  1.00  0.00    -0.083 Cl
HETATM    2  C23 LZE A 401      18.204   5.556  -5.171  1.00  0.00     0.054 A
HETATM    3  C17 LZE A 401      19.348   5.126  -4.529  1.00  0.00     0.070 A
HETATM    4  C18 LZE A 401      19.575   5.511  -3.221  1.00  0.00     0.054 A
HETATM    5  C21 LZE A 401      17.529   6.745  -3.221  1.00  0.00     0.003 A
HETATM    6 CL7  LZE A 401      20.997   4.968  -2.440  1.00  0.00    -0.083 Cl
HETATM    7  C22 LZE A 401      17.281   6.362  -4.529  1.00  0.00     0.021 A
HETATM    8  C20 LZE A 401      18.680   6.325  -2.554  1.00  0.00     0.021 A
ENDROOT
BRANCH   3   9
HETATM    9  C15 LZE A 401      20.337   4.261  -5.207  1.00  0.00     0.239 C
HETATM   10  N14 LZE A 401      19.837   2.987  -5.358  1.00  0.00    -0.221 N
HETATM   11  O16 LZE A 401      21.444   4.639  -5.577  1.00  0.00    -0.274 OA
HETATM   12  H14 LZE A 401      18.901   2.774  -5.014  1.00  0.00     0.137 HD
BRANCH  10  13
HETATM   13  C13 LZE A 401      20.576   1.991  -5.966  1.00  0.00     0.066 A
HETATM   14  C9  LZE A 401      20.049   0.694  -6.252  1.00  0.00     0.115 A
HETATM   15  N10 LZE A 401      20.999  -0.074  -6.870  1.00  0.00    -0.176 NA
HETATM   16  C12 LZE A 401      21.896   1.982  -6.424  1.00  0.00     0.148 A
HETATM   17  H10 LZE A 401      20.903  -1.037  -7.194  1.00  0.00     0.155 HD
HETATM   18  N11 LZE A 401      22.085   0.713  -6.958  1.00  0.00    -0.202 NA
BRANCH  14  19
HETATM   19  C7  LZE A 401      18.678   0.318  -5.927  1.00  0.00     0.246 C
HETATM   20  O8  LZE A 401      17.912   1.082  -5.318  1.00  0.00    -0.273 OA
HETATM   21  H6  LZE A 401      19.023  -1.489  -6.858  1.00  0.00     0.131 HD
HETATM   22  N6  LZE A 401      18.333  -0.924  -6.363  1.00  0.00    -0.250 N
BRANCH  22  23
HETATM   23  C5  LZE A 401      16.990  -1.468  -6.136  1.00  0.00     0.064 C
HETATM   24  C4  LZE A 401      16.682  -2.351  -7.344  1.00  0.00     0.034 C
HETATM   25  C3  LZE A 401      15.292  -2.976  -7.147  1.00  0.00     0.082 C
HETATM   26  N24 LZE A 401      15.193  -3.723  -5.856  1.00  0.00    -0.316 NA
HETATM   27  H24 LZE A 401      15.751  -4.577  -5.876  1.00  0.00     0.122 HD
HETATM   28  C26 LZE A 401      15.554  -2.868  -4.703  1.00  0.00     0.082 C
HETATM   29  C25 LZE A 401      16.959  -2.246  -4.842  1.00  0.00     0.034 C
ENDBRANCH  22  23
ENDBRANCH  14  19
ENDBRANCH  10  13
ENDBRANCH   3   9
TORSDOF 4
