REMARK  5 active torsions:
REMARK  status: ('A' for Active; 'I' for Inactive)
REMARK    1  A    between atoms: C08_3  and  C07_7
REMARK    2  A    between atoms: C07_7  and  C04_8
REMARK    3  A    between atoms: C07_7  and  S14_14
REMARK    4  A    between atoms: S14_14  and  C16_16
REMARK    5  A    between atoms: C16_16  and  C17_17
ROOT
HETATM    1  C10 RNW A 405      10.747  -4.979  25.237  1.00  0.00     0.000 A
HETATM    2  C09 RNW A 405      10.818  -3.869  24.398  1.00  0.00     0.005 A
HETATM    3  C08 RNW A 405      10.117  -2.701  24.703  1.00  0.00    -0.013 A
HETATM    4  C13 RNW A 405       9.345  -2.683  25.870  1.00  0.00     0.005 A
HETATM    5  C12 RNW A 405       9.276  -3.792  26.704  1.00  0.00     0.000 A
HETATM    6  C11 RNW A 405       9.978  -4.947  26.391  1.00  0.00     0.000 A
ENDROOT
BRANCH   3   7
HETATM    7  C07 RNW A 405       9.950  -1.587  23.702  1.00  0.00     0.285 C
BRANCH   7   8
HETATM    8  C04 RNW A 405      11.350  -1.071  23.459  1.00  0.00    -0.013 A
HETATM    9  C02 RNW A 405      13.215   0.369  24.078  1.00  0.00     0.000 A
HETATM   10  C01 RNW A 405      13.825   0.175  22.849  1.00  0.00     0.000 A
HETATM   11  C03 RNW A 405      11.999  -0.245  24.376  1.00  0.00     0.005 A
HETATM   12  C05 RNW A 405      11.981  -1.257  22.218  1.00  0.00     0.005 A
HETATM   13  C06 RNW A 405      13.197  -0.645  21.920  1.00  0.00     0.000 A
ENDBRANCH   7   8
BRANCH   7  14
HETATM   14  S14 RNW A 405       8.952  -2.454  22.352  1.00  0.00     0.359 S
HETATM   15  O15 RNW A 405       8.758  -1.450  21.321  1.00  0.00    -0.928 OA
BRANCH  14  16
HETATM   16  C16 RNW A 405       7.236  -3.017  22.760  1.00  0.00     0.360 C
BRANCH  16  17
HETATM   17  C17 RNW A 405       6.837  -4.249  21.991  1.00  0.00     0.251 C
HETATM   18  O20 RNW A 405       6.206  -5.004  19.753  1.00  0.00    -0.308 OA
HETATM   19  N19 RNW A 405       6.468  -3.986  20.604  1.00  0.00    -0.140 N
HETATM   20  H19 RNW A 405       6.407  -3.023  20.272  1.00  0.00     0.163 HD
HETATM   21  H20 RNW A 405       5.966  -4.833  18.850  1.00  0.00     0.237 HD
HETATM   22  O18 RNW A 405       6.913  -5.389  22.400  1.00  0.00    -0.276 OA
ENDBRANCH  16  17
ENDBRANCH  14  16
ENDBRANCH   7  14
ENDBRANCH   3   7
TORSDOF 5
