REMARK 14 active torsions:
REMARK  status: ('A' for Active; 'I' for Inactive)
REMARK    1  A    between atoms: CBN_1  and  CBB_7
REMARK    2  A    between atoms: NAD_9  and  CAY_11
REMARK    3  A    between atoms: CAY_11  and  CBH_12
REMARK    4  A    between atoms: CAY_11  and  CAX_18
REMARK    5  A    between atoms: NAC_21  and  CAW_22
REMARK    6  A    between atoms: CAW_22  and  CAV_23
REMARK    7  A    between atoms: CAW_22  and  CAZ_51
REMARK    8  A    between atoms: CA_29  and  C_33
REMARK    9  A    between atoms: NAE_35  and  CAH_37
REMARK   10  A    between atoms: CAH_37  and  CAJ_38
REMARK   11  A    between atoms: CAH_37  and  CAI_41
REMARK   12  A    between atoms: CAI_41  and  CAM_44
REMARK   13  A    between atoms: CAJ_38  and  CAK_39
REMARK   14  A    between atoms: NAA_46  and  CAN_48
ROOT
HETATM    1  CBN SV6 A 402      11.932   8.390  26.525  1.00  0.00     0.140 A
HETATM    2  NAF SV6 A 402      12.222   7.467  27.479  1.00  0.00    -0.248 NA
HETATM    3  NAG SV6 A 402      12.265  10.221  28.048  1.00  0.00    -0.259 NA
HETATM    4  CBO SV6 A 402      12.566   7.928  28.708  1.00  0.00     0.131 A
HETATM    5  CBQ SV6 A 402      11.925   9.774  26.815  1.00  0.00     0.143 A
HETATM    6  CBP SV6 A 402      12.584   9.308  28.993  1.00  0.00     0.130 A
ENDROOT
BRANCH   1   7
HETATM    7  CBB SV6 A 402      11.522   7.883  25.175  1.00  0.00     0.252 C
HETATM    8  HAD SV6 A 402      11.531   5.929  25.854  1.00  0.00     0.132 HD
HETATM    9  NAD SV6 A 402      11.332   6.531  25.055  1.00  0.00    -0.241 N
HETATM   10  OBW SV6 A 402      11.315   8.649  24.239  1.00  0.00    -0.272 OA
BRANCH   9  11
HETATM   11  CAY SV6 A 402      10.852   5.930  23.813  1.00  0.00     0.147 C
BRANCH  11  12
HETATM   12  CBH SV6 A 402      11.965   5.310  22.917  1.00  0.00     0.015 C
HETATM   13  CBM SV6 A 402      12.820   6.396  22.253  1.00  0.00     0.005 C
HETATM   14  CBI SV6 A 402      12.860   4.300  23.656  1.00  0.00     0.005 C
HETATM   15  CBL SV6 A 402      13.861   5.801  21.322  1.00  0.00     0.000 C
HETATM   16  CBK SV6 A 402      14.785   4.894  22.115  1.00  0.00     0.000 C
HETATM   17  CBJ SV6 A 402      13.981   3.769  22.771  1.00  0.00     0.000 C
ENDBRANCH  11  12
BRANCH  11  18
HETATM   18  CAX SV6 A 402       9.996   4.763  24.352  1.00  0.00     0.219 C
HETATM   19  HAC SV6 A 402       8.915   4.596  22.568  1.00  0.00     0.131 HD
HETATM   20  OBU SV6 A 402      10.154   4.308  25.516  1.00  0.00    -0.278 OA
HETATM   21  NAC SV6 A 402       9.063   4.214  23.502  1.00  0.00    -0.245 N
BRANCH  21  22
HETATM   22  CAW SV6 A 402       8.302   3.086  23.968  1.00  0.00     0.149 C
BRANCH  22  23
HETATM   23  CAV SV6 A 402       8.691   1.816  23.145  1.00  0.00     0.226 C
HETATM   24  CBF SV6 A 402      12.700   0.035  23.772  1.00  0.00     0.009 C
HETATM   25  CD1 SV6 A 402       9.542   0.578  25.183  1.00  0.00     0.129 C
HETATM   26  CBE SV6 A 402      12.042  -1.276  23.340  1.00  0.00     0.037 C
HETATM   27  OBT SV6 A 402       8.530   1.781  21.934  1.00  0.00    -0.277 OA
HETATM   28  N   SV6 A 402       9.266   0.705  23.749  1.00  0.00    -0.204 N
HETATM   29  CA  SV6 A 402       9.633  -0.534  23.056  1.00  0.00     0.087 C
HETATM   30  CD2 SV6 A 402      12.091   0.367  25.137  1.00  0.00     0.033 C
HETATM   31  CB  SV6 A 402      10.639  -1.253  23.972  1.00  0.00    -0.024 C
HETATM   32  CG  SV6 A 402      10.739  -0.360  25.234  1.00  0.00    -0.050 C
BRANCH  29  33
HETATM   33  C   SV6 A 402       8.321  -1.332  22.991  1.00  0.00     0.243 C
HETATM   34  HAE SV6 A 402       8.325  -1.514  20.896  1.00  0.00     0.131 HD
HETATM   35  NAE SV6 A 402       7.823  -1.712  21.762  1.00  0.00    -0.247 N
HETATM   36  O   SV6 A 402       7.656  -1.567  24.003  1.00  0.00    -0.273 OA
BRANCH  35  37
HETATM   37  CAH SV6 A 402       6.537  -2.415  21.762  1.00  0.00     0.099 C
BRANCH  37  38
HETATM   38  CAJ SV6 A 402       5.415  -1.644  21.035  1.00  0.00     0.022 C
BRANCH  38  39
HETATM   39  CAK SV6 A 402       5.513  -0.127  21.119  1.00  0.00    -0.002 C
HETATM   40  CAL SV6 A 402       5.300   0.468  19.734  1.00  0.00     0.004 C
ENDBRANCH  38  39
ENDBRANCH  37  38
BRANCH  37  41
HETATM   41  CAI SV6 A 402       6.700  -3.810  21.110  1.00  0.00     0.214 C
HETATM   42  OBR SV6 A 402       7.604  -4.528  21.862  1.00  0.00    -0.381 OA
HETATM   43  HBR SV6 A 402       7.704  -5.384  21.462  1.00  0.00     0.210 HD
BRANCH  41  44
HETATM   44  CAM SV6 A 402       5.372  -4.594  21.134  1.00  0.00     0.231 C
HETATM   45  HAA SV6 A 402       5.815  -5.288  23.028  1.00  0.00     0.131 HD
HETATM   46  NAA SV6 A 402       5.111  -5.312  22.290  1.00  0.00    -0.253 N
HETATM   47  OBS SV6 A 402       4.574  -4.518  20.194  1.00  0.00    -0.277 OA
BRANCH  46  48
HETATM   48  CAN SV6 A 402       3.933  -6.082  22.528  1.00  0.00     0.061 C
HETATM   49  CAP SV6 A 402       2.708  -5.395  23.122  1.00  0.00     0.020 C
HETATM   50  CAO SV6 A 402       3.520  -6.347  23.970  1.00  0.00     0.020 C
ENDBRANCH  46  48
ENDBRANCH  41  44
ENDBRANCH  37  41
ENDBRANCH  35  37
ENDBRANCH  29  33
ENDBRANCH  22  23
BRANCH  22  51
HETATM   51  CAZ SV6 A 402       6.751   3.378  23.902  1.00  0.00    -0.014 C
HETATM   52  CBC SV6 A 402       5.983   2.157  24.406  1.00  0.00     0.012 C
HETATM   53  CBD SV6 A 402       6.458   4.514  24.905  1.00  0.00     0.012 C
HETATM   54  CBA SV6 A 402       6.244   3.753  22.502  1.00  0.00     0.012 C
ENDBRANCH  22  51
ENDBRANCH  21  22
ENDBRANCH  11  18
ENDBRANCH   9  11
ENDBRANCH   1   7
TORSDOF 14
