MODEL        1
REMARK THIS MODEL IS IDENTICAL TO THE INPUT LIGAND AND NOT FROM DOCKING
REMARK 921   NORMALIZED FREE ENERGY PREDICTED BY IDOCK:   -6.38 KCAL/MOL
REMARK 922        TOTAL FREE ENERGY PREDICTED BY IDOCK:   -7.75 KCAL/MOL
REMARK 923 INTER-LIGAND FREE ENERGY PREDICTED BY IDOCK:   -7.50 KCAL/MOL
REMARK 924 INTRA-LIGAND FREE ENERGY PREDICTED BY IDOCK:   -0.25 KCAL/MOL
REMARK 927      BINDING AFFINITY PREDICTED BY RF-SCORE:    0.00 PKD
ROOT
HETATM    1  N1  UH7 A1001       7.934  -0.610  20.709  1.00  0.00    -0.298 N  
HETATM    2  O   UH7 A1001       9.738   0.762  20.761  1.00  0.00    -0.599 OA 
HETATM    3  C6  UH7 A1001       9.116  -0.198  21.206  1.00  0.00    -0.324 C  
HETATM    4  H1  UH7 A1001       7.512  -1.441  21.123  1.00  0.00     0.000 HD 
ENDROOT
BRANCH   1   5
HETATM    5  C5  UH7 A1001       7.237   0.022  19.660  1.00  0.00    -0.362 A  
HETATM    6  C4  UH7 A1001       7.705  -0.050  18.349  1.00  0.00    -0.306 A  
HETATM    7  C2  UH7 A1001       5.541   1.510  18.876  1.00  0.00    -0.617 A  
HETATM    8  C   UH7 A1001       5.529   0.926  21.325  1.00  0.00    -0.348 C  
HETATM    9  N   UH7 A1001       7.149   0.623  17.336  1.00  0.00    -0.426 NA 
HETATM   10  C3  UH7 A1001       6.083   1.384  17.613  1.00  0.00    -0.445 A  
HETATM   11  C1  UH7 A1001       6.111   0.818  19.940  1.00  0.00    -0.468 A  
ENDBRANCH   1   5
BRANCH   3  12
HETATM   12  C7  UH7 A1001       9.612  -0.997  22.396  1.00  0.00    -0.245 C  
BRANCH  12  13
HETATM   13  C8  UH7 A1001      11.094  -0.798  22.599  1.00  0.00    -0.258 A  
HETATM   14  C13 UH7 A1001      12.002  -1.377  21.714  1.00  0.00    -0.526 A  
HETATM   15 CL   UH7 A1001      14.477  -1.866  20.755  1.00  0.00    -0.530 Cl 
HETATM   16  C11 UH7 A1001      13.818  -0.188  22.771  1.00  0.00    -0.402 A  
HETATM   17  C10 UH7 A1001      12.916   0.363  23.672  1.00  0.00    -0.565 A  
HETATM   18  C12 UH7 A1001      13.348  -1.074  21.821  1.00  0.00    -0.473 A  
HETATM   19  C9  UH7 A1001      11.569   0.049  23.592  1.00  0.00    -0.307 A  
ENDBRANCH  12  13
ENDBRANCH   3  12
TORSDOF 3
ENDMDL
