REMARK 15 active torsions:
REMARK  status: ('A' for Active; 'I' for Inactive)
REMARK    1  A    between atoms: C2_2  and  C13_7
REMARK    2  A    between atoms: C13_7  and  O15_8
REMARK    3  A    between atoms: O15_8  and  C17_9
REMARK    4  A    between atoms: N19_10  and  C21_13
REMARK    5  A    between atoms: C21_13  and  C23_14
REMARK    6  A    between atoms: C21_13  and  C75_41
REMARK    7  A    between atoms: C75_41  and  O79_43
REMARK    8  A    between atoms: N25_17  and  C27_18
REMARK    9  A    between atoms: C27_18  and  C29_19
REMARK   10  A    between atoms: C27_18  and  C58_34
REMARK   11  A    between atoms: C58_34  and  C60_35
REMARK   12  A    between atoms: N31_20  and  C33_23
REMARK   13  A    between atoms: C33_23  and  C41_24
REMARK   14  A    between atoms: C33_23  and  C35_31
REMARK   15  A    between atoms: C41_24  and  C43_25
ROOT
HETATM    1  C1  NOL A 401      19.879  41.195 -12.321  1.00  0.00     0.006 A
HETATM    2  C2  NOL A 401      19.227  40.136 -12.948  1.00  0.00    -0.021 A
HETATM    3  C5  NOL A 401      21.535  41.272 -14.094  1.00  0.00     0.000 A
HETATM    4  C3  NOL A 401      19.726  39.652 -14.168  1.00  0.00     0.006 A
HETATM    5  C4  NOL A 401      20.873  40.217 -14.735  1.00  0.00     0.000 A
HETATM    6  C6  NOL A 401      21.031  41.766 -12.889  1.00  0.00     0.000 A
ENDROOT
BRANCH   2   7
HETATM    7  C13 NOL A 401      17.954  39.518 -12.315  1.00  0.00     0.207 C
BRANCH   7   8
HETATM    8  O15 NOL A 401      18.237  38.774 -11.139  1.00  0.00    -0.298 OA
BRANCH   8   9
HETATM    9  C17 NOL A 401      18.740  37.458 -11.251  1.00  0.00     0.339 C
HETATM   10  N19 NOL A 401      19.250  36.803 -10.073  1.00  0.00    -0.220 N
HETATM   11  O89 NOL A 401      18.775  36.842 -12.276  1.00  0.00    -0.245 OA
HETATM   12  H19 NOL A 401      19.151  37.233  -9.153  1.00  0.00     0.134 HD
BRANCH  10  13
HETATM   13  C21 NOL A 401      19.900  35.531 -10.222  1.00  0.00     0.174 C
BRANCH  13  14
HETATM   14  C23 NOL A 401      18.985  34.532  -9.547  1.00  0.00     0.221 C
HETATM   15  O73 NOL A 401      18.712  34.700  -8.419  1.00  0.00    -0.278 OA
HETATM   16  H25 NOL A 401      18.680  33.311 -11.265  1.00  0.00     0.131 HD
HETATM   17  N25 NOL A 401      18.449  33.405 -10.276  1.00  0.00    -0.246 N
BRANCH  17  18
HETATM   18  C27 NOL A 401      17.613  32.420  -9.676  1.00  0.00     0.144 C
BRANCH  18  19
HETATM   19  C29 NOL A 401      18.368  31.562  -8.655  1.00  0.00     0.218 C
HETATM   20  N31 NOL A 401      17.729  31.227  -7.413  1.00  0.00    -0.252 N
HETATM   21  H31 NOL A 401      16.795  31.600  -7.242  1.00  0.00     0.131 HD
HETATM   22  O56 NOL A 401      19.440  31.142  -8.918  1.00  0.00    -0.278 OA
BRANCH  20  23
HETATM   23  C33 NOL A 401      18.316  30.404  -6.400  1.00  0.00     0.087 C
BRANCH  23  24
HETATM   24  C41 NOL A 401      18.732  31.234  -5.179  1.00  0.00     0.034 C
BRANCH  24  25
HETATM   25  C43 NOL A 401      19.802  32.235  -5.512  1.00  0.00     0.082 C
HETATM   26  C45 NOL A 401      21.095  31.499  -5.897  1.00  0.00     0.036 C
HETATM   27  C47 NOL A 401      22.186  32.547  -5.562  1.00  0.00     0.146 C
HETATM   28  N49 NOL A 401      21.651  33.266  -4.437  1.00  0.00    -0.250 NA
HETATM   29  C51 NOL A 401      20.156  33.087  -4.346  1.00  0.00     0.245 C
HETATM   30  O54 NOL A 401      19.442  33.587  -3.503  1.00  0.00    -0.271 OA
ENDBRANCH  24  25
ENDBRANCH  23  24
BRANCH  23  31
HETATM   31  C35 NOL A 401      17.263  29.440  -5.996  1.00  0.00     0.174 C
HETATM   32  O39 NOL A 401      17.958  28.269  -5.608  1.00  0.00    -0.393 OA
HETATM   33  H39 NOL A 401      17.284  27.652  -5.349  1.00  0.00     0.209 HD
ENDBRANCH  23  31
ENDBRANCH  20  23
ENDBRANCH  18  19
BRANCH  18  34
HETATM   34  C58 NOL A 401      16.895  31.504 -10.674  1.00  0.00     0.031 C
BRANCH  34  35
HETATM   35  C60 NOL A 401      16.328  32.268 -11.900  1.00  0.00    -0.009 C
HETATM   36  C64 NOL A 401      14.066  32.768 -13.696  1.00  0.00     0.000 C
HETATM   37  C66 NOL A 401      15.955  31.250 -12.997  1.00  0.00     0.003 C
HETATM   38  C65 NOL A 401      14.523  31.330 -13.497  1.00  0.00     0.000 C
HETATM   39  C62 NOL A 401      15.198  33.175 -11.390  1.00  0.00     0.003 C
HETATM   40  C63 NOL A 401      14.167  33.628 -12.434  1.00  0.00     0.000 C
ENDBRANCH  34  35
ENDBRANCH  18  34
ENDBRANCH  17  18
ENDBRANCH  13  14
BRANCH  13  41
HETATM   41  C75 NOL A 401      21.273  35.621  -9.543  1.00  0.00     0.142 C
HETATM   42  C77 NOL A 401      21.884  34.223  -9.453  1.00  0.00     0.040 C
BRANCH  41  43
HETATM   43  O79 NOL A 401      22.077  36.550 -10.296  1.00  0.00    -0.369 OA
HETATM   44  C81 NOL A 401      22.921  37.506  -9.704  1.00  0.00     0.062 C
HETATM   45  C83 NOL A 401      23.794  38.092 -10.810  1.00  0.00     0.041 C
HETATM   46  C87 NOL A 401      23.815  36.894  -8.620  1.00  0.00     0.041 C
HETATM   47  C85 NOL A 401      22.120  38.648  -9.098  1.00  0.00     0.041 C
ENDBRANCH  41  43
ENDBRANCH  13  41
ENDBRANCH  10  13
ENDBRANCH   8   9
ENDBRANCH   7   8
ENDBRANCH   2   7
TORSDOF 15
