REMARK  2 active torsions:
REMARK  status: ('A' for Active; 'I' for Inactive)
REMARK    1  A    between atoms: N_7  and  S_10
REMARK    2  A    between atoms: S_10  and  C4_13
ROOT
HETATM    1  N1  U1A A 404       6.860  -5.158  21.560  1.00  0.00    -0.241 N
HETATM    2  C8  U1A A 404       6.188  -6.348  22.082  1.00  0.00     0.120 C
HETATM    3  C11 U1A A 404       6.466  -4.614  20.388  1.00  0.00     0.200 C
HETATM    4  C12 U1A A 404       7.125  -3.331  19.956  1.00  0.00     0.105 C
HETATM    5  C7  U1A A 404       5.250  -5.954  23.192  1.00  0.00     0.218 C
HETATM    6  O2  U1A A 404       5.591  -5.114  19.693  1.00  0.00    -0.280 OA
HETATM    7  N   U1A A 404       6.033  -5.282  24.240  1.00  0.00    -0.880 N
HETATM    8  C10 U1A A 404       6.693  -4.067  23.733  1.00  0.00     0.218 C
HETATM    9  C9  U1A A 404       7.610  -4.440  22.596  1.00  0.00     0.120 C
ENDROOT
BRANCH   7  10
HETATM   10  S   U1A A 404       5.384  -5.221  25.744  1.00  0.00     2.572 S
HETATM   11  O1  U1A A 404       4.752  -6.483  25.971  1.00  0.00    -0.924 OA
HETATM   12  O   U1A A 404       6.434  -4.786  26.611  1.00  0.00    -0.924 OA
BRANCH  10  13
HETATM   13  C4  U1A A 404       4.109  -3.996  25.750  1.00  0.00    -0.588 A
HETATM   14  C5  U1A A 404       2.870  -4.300  25.209  1.00  0.00     0.123 A
HETATM   15  C6  U1A A 404       1.874  -3.342  25.222  1.00  0.00     0.021 A
HETATM   16  C1  U1A A 404       2.084  -2.087  25.770  1.00  0.00    -0.048 A
HETATM   17  C2  U1A A 404       3.329  -1.809  26.310  1.00  0.00     0.021 A
HETATM   18  C   U1A A 404       0.995  -1.053  25.774  1.00  0.00     0.044 C
HETATM   19  C3  U1A A 404       4.342  -2.750  26.312  1.00  0.00     0.123 A
ENDBRANCH  10  13
ENDBRANCH   7  10
TORSDOF 2
