REMARK 16 active torsions:
REMARK  status: ('A' for Active; 'I' for Inactive)
REMARK    1  A    between atoms: C1_1  and  N3_3
REMARK    2  A    between atoms: C1_1  and  N18_19
REMARK    3  A    between atoms: N18_19  and  C19_21
REMARK    4  A    between atoms: N3_3  and  C4_5
REMARK    5  A    between atoms: C19_21  and  C24_22
REMARK    6  A    between atoms: C4_5  and  C10_11
REMARK    7  A    between atoms: C19_21  and  C20_51
REMARK    8  A    between atoms: C10_11  and  S11_12
REMARK    9  A    between atoms: C28_27  and  C34_32
REMARK   10  A    between atoms: N36_35  and  C37_36
REMARK   11  A    between atoms: C37_36  and  C43_37
REMARK   12  A    between atoms: C37_36  and  C38_47
REMARK   13  A    between atoms: C43_37  and  C49_40
REMARK   14  A    between atoms: C38_47  and  C39_48
REMARK   15  A    between atoms: C39_48  and  C40_49
REMARK   16  A    between atoms: N45_41  and  C46_44
ROOT
HETATM    1  C1  NNA A 401     125.180   4.744  22.565  1.00  0.00     0.275 C
HETATM    2  O2  NNA A 401     125.657   4.357  23.656  1.00  0.00    -0.261 OA
ENDROOT
BRANCH   1   3
HETATM    3  N3  NNA A 401     125.848   5.524  21.697  1.00  0.00    -0.220 N
HETATM    4  H3  NNA A 401     125.403   5.714  20.799  1.00  0.00     0.134 HD
BRANCH   3   5
HETATM    5  C4  NNA A 401     127.169   6.125  21.939  1.00  0.00     0.141 C
HETATM    6  C6  NNA A 401     128.252   5.058  22.135  1.00  0.00     0.045 C
HETATM    7  C7  NNA A 401     127.845   6.142  19.487  1.00  0.00     0.003 C
HETATM    8  C5  NNA A 401     127.538   6.979  20.721  1.00  0.00     0.045 C
HETATM    9  C9  NNA A 401     128.935   5.133  19.763  1.00  0.00     0.000 C
HETATM   10  C8  NNA A 401     128.494   4.225  20.886  1.00  0.00     0.003 C
BRANCH   5  11
HETATM   11  C10 NNA A 401     127.098   6.989  23.242  1.00  0.00    -0.478 C
BRANCH  11  12
HETATM   12  S11 NNA A 401     126.012   8.398  23.175  1.00  0.00     2.502 S
HETATM   13  C16 NNA A 401     126.817   8.961  25.672  1.00  0.00     0.190 C
HETATM   14  C17 NNA A 401     124.718  10.083  24.870  1.00  0.00     0.190 C
HETATM   15  C15 NNA A 401     124.687   7.653  25.440  1.00  0.00     0.190 C
HETATM   16  C14 NNA A 401     125.527   8.791  24.871  1.00  0.00    -0.888 C
HETATM   17  O13 NNA A 401     126.738   9.510  22.642  1.00  0.00    -0.933 OA
HETATM   18  O12 NNA A 401     124.790   8.042  22.508  1.00  0.00    -0.933 OA
ENDBRANCH  11  12
ENDBRANCH   5  11
ENDBRANCH   3   5
ENDBRANCH   1   3
BRANCH   1  19
HETATM   19  N18 NNA A 401     123.927   4.434  22.186  1.00  0.00    -0.233 N
HETATM   20  H18 NNA A 401     123.504   4.928  21.400  1.00  0.00     0.132 HD
BRANCH  19  21
HETATM   21  C19 NNA A 401     123.166   3.408  22.876  1.00  0.00     0.151 C
BRANCH  21  22
HETATM   22  C24 NNA A 401     123.316   2.087  22.107  1.00  0.00     0.226 C
HETATM   23  C29 NNA A 401     124.919  -1.022  23.074  1.00  0.00    -0.035 C
HETATM   24  N26 NNA A 401     123.822   1.035  22.773  1.00  0.00    -0.208 N
HETATM   25  O25 NNA A 401     122.957   2.002  20.946  1.00  0.00    -0.277 OA
HETATM   26  C30 NNA A 401     125.086  -0.194  24.339  1.00  0.00     0.042 C
HETATM   27  C28 NNA A 401     123.990  -0.283  22.153  1.00  0.00     0.084 C
HETATM   28  C32 NNA A 401     127.286  -1.462  23.963  1.00  0.00     0.016 C
HETATM   29  C27 NNA A 401     124.227   1.046  24.198  1.00  0.00     0.107 C
HETATM   30  C31 NNA A 401     126.274  -0.467  23.432  1.00  0.00    -0.004 C
HETATM   31  C33 NNA A 401     126.931   0.664  22.668  1.00  0.00     0.016 C
BRANCH  27  32
HETATM   32  C34 NNA A 401     122.660  -0.998  22.124  1.00  0.00     0.243 C
HETATM   33  H36 NNA A 401     122.821  -1.376  20.125  1.00  0.00     0.131 HD
HETATM   34  O35 NNA A 401     122.007  -1.082  23.158  1.00  0.00    -0.273 OA
HETATM   35  N36 NNA A 401     122.217  -1.441  20.944  1.00  0.00    -0.247 N
BRANCH  35  36
HETATM   36  C37 NNA A 401     120.869  -2.023  20.806  1.00  0.00     0.099 C
BRANCH  36  37
HETATM   37  C43 NNA A 401     120.924  -3.478  20.256  1.00  0.00     0.214 C
HETATM   38  H42 NNA A 401     121.909  -5.120  20.628  1.00  0.00     0.210 HD
HETATM   39  O42 NNA A 401     121.875  -4.232  20.964  1.00  0.00    -0.381 OA
BRANCH  37  40
HETATM   40  C49 NNA A 401     119.612  -4.167  20.451  1.00  0.00     0.231 C
HETATM   41  N45 NNA A 401     119.418  -4.728  21.669  1.00  0.00    -0.253 N
HETATM   42  O44 NNA A 401     118.777  -4.206  19.552  1.00  0.00    -0.277 OA
HETATM   43  H45 NNA A 401     120.108  -4.578  22.405  1.00  0.00     0.131 HD
BRANCH  41  44
HETATM   44  C46 NNA A 401     118.259  -5.529  21.943  1.00  0.00     0.061 C
HETATM   45  C47 NNA A 401     117.055  -4.857  22.510  1.00  0.00     0.020 C
HETATM   46  C48 NNA A 401     117.862  -5.775  23.362  1.00  0.00     0.020 C
ENDBRANCH  41  44
ENDBRANCH  37  40
ENDBRANCH  36  37
BRANCH  36  47
HETATM   47  C38 NNA A 401     119.978  -1.100  19.956  1.00  0.00     0.022 C
BRANCH  47  48
HETATM   48  C39 NNA A 401     119.605   0.218  20.629  1.00  0.00     0.001 C
BRANCH  48  49
HETATM   49  C40 NNA A 401     118.501   0.978  19.936  1.00  0.00    -0.003 C
HETATM   50  C41 NNA A 401     118.594   0.926  18.447  1.00  0.00     0.004 C
ENDBRANCH  48  49
ENDBRANCH  47  48
ENDBRANCH  36  47
ENDBRANCH  35  36
ENDBRANCH  27  32
ENDBRANCH  21  22
BRANCH  21  51
HETATM   51  C20 NNA A 401     121.743   3.886  23.175  1.00  0.00    -0.014 C
HETATM   52  C22 NNA A 401     121.832   5.090  24.110  1.00  0.00     0.012 C
HETATM   53  C23 NNA A 401     120.951   4.295  21.933  1.00  0.00     0.012 C
HETATM   54  C21 NNA A 401     120.982   2.769  23.871  1.00  0.00     0.012 C
ENDBRANCH  21  51
ENDBRANCH  19  21
ENDBRANCH   1  19
TORSDOF 16
