MODEL        1
REMARK THIS MODEL IS IDENTICAL TO THE INPUT LIGAND AND NOT FROM DOCKING
REMARK 921   NORMALIZED FREE ENERGY PREDICTED BY IDOCK:   -1.60 KCAL/MOL
REMARK 922        TOTAL FREE ENERGY PREDICTED BY IDOCK:   -3.41 KCAL/MOL
REMARK 923 INTER-LIGAND FREE ENERGY PREDICTED BY IDOCK:   -2.34 KCAL/MOL
REMARK 924 INTRA-LIGAND FREE ENERGY PREDICTED BY IDOCK:   -1.06 KCAL/MOL
REMARK 927      BINDING AFFINITY PREDICTED BY RF-SCORE:    0.00 PKD
ROOT
HETATM    1  C02 FJC A 405     -11.806  11.065  69.104  1.00  0.00    -0.274 C  
HETATM    2  H12 FJC A 405     -10.796  12.259  70.643  1.00  0.00     0.000 HD 
HETATM    3  O01 FJC A 405     -12.534  11.126  68.184  1.00  0.00    -0.456 OA 
HETATM    4  N12 FJC A 405     -11.434  12.309  69.849  1.00  0.00    -0.186 N  
ENDROOT
BRANCH   1   5
HETATM    5  C03 FJC A 405     -11.214   9.678  69.601  1.00  0.00    -0.199 A  
HETATM    6  C08 FJC A 405      -9.991   5.316  70.508  1.00  0.00    -0.195 A  
HETATM    7  N11 FJC A 405     -11.517   8.480  69.114  1.00  0.00    -0.075 NA 
HETATM    8  C07 FJC A 405      -9.211   5.938  71.494  1.00  0.00    -0.113 A  
HETATM    9  C04 FJC A 405     -10.304   9.503  70.655  1.00  0.00    -0.173 A  
HETATM   10  C10 FJC A 405     -10.821   7.496  69.809  1.00  0.00    -0.184 A  
HETATM   11  H11 FJC A 405     -12.164   8.307  68.345  1.00  0.00     0.000 HD 
HETATM   12  C05 FJC A 405     -10.059   8.103  70.773  1.00  0.00    -0.171 A  
HETATM   13  C09 FJC A 405     -10.798   6.084  69.663  1.00  0.00    -0.267 A  
HETATM   14  C06 FJC A 405      -9.236   7.320  71.637  1.00  0.00    -0.166 A  
ENDBRANCH   1   5
BRANCH   4  15
HETATM   15  C13 FJC A 405     -11.996  13.609  69.429  1.00  0.00    -0.238 C  
BRANCH  15  16
HETATM   16  C14 FJC A 405     -11.932  14.534  70.630  1.00  0.00    -0.358 C  
BRANCH  16  17
HETATM   17  C15 FJC A 405     -12.743  13.823  71.716  1.00  0.00    -0.131 A  
HETATM   18  C21 FJC A 405     -12.111  13.078  72.686  1.00  0.00    -0.147 A  
HETATM   19  C16 FJC A 405     -14.128  13.899  71.689  1.00  0.00    -0.518 A  
HETATM   20  C19 FJC A 405     -12.862  12.426  73.650  1.00  0.00    -0.465 A  
HETATM   21  C17 FJC A 405     -14.878  13.247  72.653  1.00  0.00    -0.486 A  
HETATM   22  F20 FJC A 405     -12.244  11.701  74.622  1.00  0.00    -0.336 F  
HETATM   23  C18 FJC A 405     -14.245  12.512  73.628  1.00  0.00    -0.279 A  
ENDBRANCH  16  17
ENDBRANCH  15  16
BRANCH  15  24
HETATM   24  C22 FJC A 405     -11.295  14.168  68.205  1.00  0.00    -0.270 C  
HETATM   25  N23 FJC A 405     -12.128  14.556  67.088  1.00  0.00     0.242 N  
HETATM   26  H23 FJC A 405     -13.137  14.435  67.170  1.00  0.00     0.000 HD 
HETATM   27  O34 FJC A 405     -10.120  14.272  68.159  1.00  0.00    -0.189 OA 
BRANCH  25  28
HETATM   28  C24 FJC A 405     -11.599  15.107  65.863  1.00  0.00     1.004 C  
HETATM   29  O33 FJC A 405     -11.504  17.154  64.791  1.00  0.00     0.412 OA 
HETATM   30  C32 FJC A 405     -11.996  16.549  65.676  1.00  0.00     4.274 C  
BRANCH  28  31
HETATM   31  C25 FJC A 405     -12.161  14.254  64.704  1.00  0.00     0.108 C  
BRANCH  31  32
HETATM   32  C26 FJC A 405     -11.694  12.654  64.814  1.00  0.00    -0.377 C  
HETATM   33  N29 FJC A 405     -11.273  10.871  63.090  1.00  0.00    -0.188 NA 
HETATM   34  C30 FJC A 405     -12.376  11.805  63.628  1.00  0.00    -0.497 C  
HETATM   35  O31 FJC A 405     -13.479  11.880  63.255  1.00  0.00    -0.603 OA 
HETATM   36  C28 FJC A 405     -10.240  11.114  63.784  1.00  0.00    -0.396 C  
HETATM   37  C27 FJC A 405     -10.512  12.579  64.620  1.00  0.00    -0.446 C  
ENDBRANCH  31  32
ENDBRANCH  28  31
ENDBRANCH  25  28
ENDBRANCH  15  24
ENDBRANCH   4  15
TORSDOF 8
ENDMDL
