REMARK 10 active torsions:
REMARK  status: ('A' for Active; 'I' for Inactive)
REMARK    1  A    between atoms: C7_1  and  O8_2
REMARK    2  A    between atoms: C7_1  and  C1_27
REMARK    3  A    between atoms: O8_2  and  C9_3
REMARK    4  A    between atoms: N11_6  and  C12_7
REMARK    5  A    between atoms: C12_7  and  C13_8
REMARK    6  A    between atoms: C12_7  and  C17_12
REMARK    7  A    between atoms: N19_14  and  C20_16
REMARK    8  A    between atoms: C20_16  and  C21_17
REMARK    9  A    between atoms: C20_16  and  C24_20
REMARK   10  A    between atoms: C24_20  and  C25_21
ROOT
HETATM    1  C7  K36 A 401     -13.989  16.456   0.049  1.00  0.00     0.207 C
ENDROOT
BRANCH   1   2
HETATM    2  O8  K36 A 401     -14.789  15.533  -0.677  1.00  0.00    -0.298 OA
BRANCH   2   3
HETATM    3  C9  K36 A 401     -15.196  14.400   0.063  1.00  0.00     0.339 C
HETATM    4  O10 K36 A 401     -15.126  14.394   1.245  1.00  0.00    -0.245 OA
HETATM    5  H11 K36 A 401     -15.984  13.272  -1.621  1.00  0.00     0.133 HD
HETATM    6  N11 K36 A 401     -15.707  13.220  -0.641  1.00  0.00    -0.222 N
BRANCH   6   7
HETATM    7  C12 K36 A 401     -15.807  11.977   0.098  1.00  0.00     0.146 C
BRANCH   7   8
HETATM    8  C13 K36 A 401     -16.442  10.891  -0.739  1.00  0.00     0.031 C
HETATM    9  C15 K36 A 401     -18.633  11.251   0.403  1.00  0.00     0.007 C
HETATM   10  C14 K36 A 401     -17.918  11.235  -0.943  1.00  0.00    -0.015 C
HETATM   11  C16 K36 A 401     -18.577  10.214  -1.878  1.00  0.00     0.007 C
ENDBRANCH   7   8
BRANCH   7  12
HETATM   12  C17 K36 A 401     -14.385  11.545   0.465  1.00  0.00     0.218 C
HETATM   13  H19 K36 A 401     -14.934  10.921   2.460  1.00  0.00     0.131 HD
HETATM   14  N19 K36 A 401     -14.153  10.998   1.809  1.00  0.00    -0.252 N
HETATM   15  O18 K36 A 401     -13.501  11.663  -0.319  1.00  0.00    -0.278 OA
BRANCH  14  16
HETATM   16  C20 K36 A 401     -12.820  10.561   2.229  1.00  0.00     0.087 C
BRANCH  16  17
HETATM   17  C21 K36 A 401     -12.994   9.076   2.567  1.00  0.00     0.174 C
HETATM   18  H22 K36 A 401     -11.861   7.528   2.900  1.00  0.00     0.209 HD
HETATM   19  O22 K36 A 401     -11.753   8.448   2.691  1.00  0.00    -0.393 OA
ENDBRANCH  16  17
BRANCH  16  20
HETATM   20  C24 K36 A 401     -12.351  11.380   3.446  1.00  0.00     0.034 C
BRANCH  20  21
HETATM   21  C25 K36 A 401     -11.956  12.845   3.034  1.00  0.00     0.082 C
HETATM   22  C26 K36 A 401     -10.730  12.816   2.101  1.00  0.00     0.036 C
HETATM   23  C27 K36 A 401     -10.077  14.129   2.281  1.00  0.00     0.146 C
HETATM   24  N28 K36 A 401     -10.387  14.525   3.707  1.00  0.00    -0.250 NA
HETATM   25  C29 K36 A 401     -11.568  13.691   4.141  1.00  0.00     0.245 C
HETATM   26  O30 K36 A 401     -12.081  13.758   5.207  1.00  0.00    -0.271 OA
ENDBRANCH  20  21
ENDBRANCH  16  20
ENDBRANCH  14  16
ENDBRANCH   7  12
ENDBRANCH   6   7
ENDBRANCH   2   3
ENDBRANCH   1   2
BRANCH   1  27
HETATM   27  C1  K36 A 401     -12.491  16.243  -0.243  1.00  0.00    -0.021 A
HETATM   28  C3  K36 A 401     -10.184  16.879   0.140  1.00  0.00     0.000 A
HETATM   29  C6  K36 A 401     -12.074  15.259  -1.140  1.00  0.00     0.006 A
HETATM   30  C4  K36 A 401      -9.772  15.897  -0.748  1.00  0.00     0.000 A
HETATM   31  C2  K36 A 401     -11.544  17.042   0.394  1.00  0.00     0.006 A
HETATM   32  C5  K36 A 401     -10.715  15.088  -1.386  1.00  0.00     0.000 A
ENDBRANCH   1  27
TORSDOF 10
