REMARK 11 active torsions:
REMARK  status: ('A' for Active; 'I' for Inactive)
REMARK    1  A    between atoms: C30_7  and  C29_8
REMARK    2  A    between atoms: C29_8  and  C26_9
REMARK    3  A    between atoms: C26_9  and  N24_10
REMARK    4  A    between atoms: C26_9  and  C27_34
REMARK    5  A    between atoms: C23_13  and  C15_14
REMARK    6  A    between atoms: C15_14  and  N13_15
REMARK    7  A    between atoms: C15_14  and  C16_27
REMARK    8  A    between atoms: C16_27  and  C17_28
REMARK    9  A    between atoms: C12_17  and  O11_19
REMARK   10  A    between atoms: O11_19  and  C10_20
REMARK   11  A    between atoms: C10_20  and  C1_21
ROOT
HETATM    1  O1  GHX A 401     -11.677   2.594   4.956  1.00  0.00    -0.274 OA
HETATM    2  C34 GHX A 401     -10.926   2.591   3.993  1.00  0.00     0.231 C
HETATM    3  N33 GHX A 401      -9.816   3.310   3.864  1.00  0.00    -0.231 N
HETATM    4  H33 GHX A 401      -9.509   3.998   4.552  1.00  0.00     0.136 HD
HETATM    5  C32 GHX A 401      -9.085   3.018   2.647  1.00  0.00     0.060 C
HETATM    6  C31 GHX A 401      -9.902   1.941   1.937  1.00  0.00     0.020 C
HETATM    7  C30 GHX A 401     -11.161   1.746   2.779  1.00  0.00     0.014 C
ENDROOT
BRANCH   7   8
HETATM    8  C29 GHX A 401     -11.349   0.279   3.156  1.00  0.00     0.061 C
BRANCH   8   9
HETATM    9  C26 GHX A 401     -11.817  -0.513   1.939  1.00  0.00     0.091 C
BRANCH   9  10
HETATM   10  N24 GHX A 401     -13.031   0.108   1.441  1.00  0.00    -0.251 N
HETATM   11  O25 GHX A 401     -12.769  -0.420  -0.730  1.00  0.00    -0.278 OA
HETATM   12  H24 GHX A 401     -13.552   0.733   2.057  1.00  0.00     0.131 HD
HETATM   13  C23 GHX A 401     -13.490  -0.109   0.208  1.00  0.00     0.219 C
BRANCH  13  14
HETATM   14  C15 GHX A 401     -14.969   0.070   0.001  1.00  0.00     0.150 C
BRANCH  14  15
HETATM   15  N13 GHX A 401     -15.299   1.475  -0.178  1.00  0.00    -0.222 N
HETATM   16  O14 GHX A 401     -14.112   2.600   1.385  1.00  0.00    -0.245 OA
HETATM   17  C12 GHX A 401     -14.536   2.483   0.246  1.00  0.00     0.339 C
HETATM   18  H13 GHX A 401     -16.169   1.704  -0.658  1.00  0.00     0.133 HD
BRANCH  17  19
HETATM   19  O11 GHX A 401     -14.187   3.495  -0.730  1.00  0.00    -0.298 OA
BRANCH  19  20
HETATM   20  C10 GHX A 401     -13.475   4.658  -0.330  1.00  0.00     0.207 C
BRANCH  20  21
HETATM   21  C1  GHX A 401     -14.280   5.827  -0.826  1.00  0.00    -0.021 A
HETATM   22  C5  GHX A 401     -16.171   6.657  -2.081  1.00  0.00     0.000 A
HETATM   23  C6  GHX A 401     -15.409   5.596  -1.610  1.00  0.00     0.006 A
HETATM   24  C4  GHX A 401     -15.798   7.951  -1.759  1.00  0.00     0.000 A
HETATM   25  C3  GHX A 401     -14.672   8.168  -0.976  1.00  0.00     0.000 A
HETATM   26  C2  GHX A 401     -13.901   7.119  -0.503  1.00  0.00     0.006 A
ENDBRANCH  20  21
ENDBRANCH  19  20
ENDBRANCH  17  19
ENDBRANCH  14  15
BRANCH  14  27
HETATM   27  C16 GHX A 401     -15.392  -0.798  -1.191  1.00  0.00     0.063 C
BRANCH  27  28
HETATM   28  C17 GHX A 401     -16.875  -0.800  -1.537  1.00  0.00    -0.045 A
HETATM   29  C22 GHX A 401     -17.357  -1.715  -2.473  1.00  0.00     0.004 A
HETATM   30  C18 GHX A 401     -17.772   0.087  -0.955  1.00  0.00     0.004 A
HETATM   31  C19 GHX A 401     -19.117   0.057  -1.308  1.00  0.00     0.000 A
HETATM   32  C21 GHX A 401     -18.701  -1.750  -2.834  1.00  0.00     0.000 A
HETATM   33  C20 GHX A 401     -19.583  -0.860  -2.243  1.00  0.00     0.000 A
ENDBRANCH  27  28
ENDBRANCH  14  27
ENDBRANCH  13  14
ENDBRANCH   9  10
BRANCH   9  34
HETATM   34  C27 GHX A 401     -12.122  -1.984   2.251  1.00  0.00     0.175 C
HETATM   35  H28 GHX A 401     -11.170  -3.599   2.950  1.00  0.00     0.209 HD
HETATM   36  O28 GHX A 401     -10.981  -2.688   2.757  1.00  0.00    -0.393 OA
ENDBRANCH   9  34
ENDBRANCH   8   9
ENDBRANCH   7   8
TORSDOF 11
