REMARK  8 active torsions:
REMARK  status: ('A' for Active; 'I' for Inactive)
REMARK    1  A    between atoms: C12_3  and  N01_13
REMARK    2  A    between atoms: C13_5  and  O02_23
REMARK    3  A    between atoms: O02_23  and  C16_24
REMARK    4  A    between atoms: C01_15  and  C02_17
REMARK    5  A    between atoms: C03_18  and  C04_19
REMARK    6  A    between atoms: C04_19  and  N02_20
REMARK    7  A    between atoms: C09_8  and  N05_26
REMARK    8  A    between atoms: N05_26  and  C19_28
ROOT
HETATM    1  C10 93J A 502       5.438   0.333 -20.159  1.00  0.00     0.021 A
HETATM    2  C11 93J A 502       6.193  -0.878 -20.145  1.00  0.00     0.034 A
HETATM    3  C12 93J A 502       5.584  -2.103 -20.151  1.00  0.00     0.053 A
HETATM    4  C08 93J A 502       5.188   2.705 -20.213  1.00  0.00     0.088 A
HETATM    5  C13 93J A 502       4.178  -2.163 -20.211  1.00  0.00     0.096 A
HETATM    6  C07 93J A 502       3.766   2.505 -20.223  1.00  0.00     0.131 A
HETATM    7  C14 93J A 502       3.429  -1.012 -20.243  1.00  0.00     0.062 A
HETATM    8  C09 93J A 502       6.041   1.602 -20.121  1.00  0.00     0.048 A
HETATM    9  N03 93J A 502       3.212   1.333 -20.260  1.00  0.00    -0.254 NA
HETATM   10  N04 93J A 502       5.635   5.235 -20.297  1.00  0.00    -0.191 NA
HETATM   11  C15 93J A 502       4.034   0.257 -20.217  1.00  0.00     0.075 A
HETATM   12  C18 93J A 502       5.477   4.110 -20.231  1.00  0.00     0.102 C
ENDROOT
BRANCH   3  13
HETATM   13  N01 93J A 502       6.403  -3.272 -20.173  1.00  0.00    -0.223 N
HETATM   14  O01 93J A 502       8.466  -2.365 -20.366  1.00  0.00    -0.274 OA
HETATM   15  C01 93J A 502       7.754  -3.368 -20.338  1.00  0.00     0.228 C
HETATM   16  H01 93J A 502       5.911  -4.157 -20.048  1.00  0.00     0.137 HD
BRANCH  15  17
HETATM   17  C02 93J A 502       8.328  -4.754 -20.478  1.00  0.00     0.061 C
HETATM   18  C03 93J A 502       9.576  -5.128 -20.889  1.00  0.00    -0.007 C
BRANCH  18  19
HETATM   19  C04 93J A 502      10.290  -6.476 -20.660  1.00  0.00     0.111 C
BRANCH  19  20
HETATM   20  N02 93J A 502      11.501  -6.851 -21.480  1.00  0.00    -0.305 NA
HETATM   21  C06 93J A 502      12.739  -6.849 -20.711  1.00  0.00     0.104 C
HETATM   22  C05 93J A 502      11.373  -8.152 -22.119  1.00  0.00     0.104 C
ENDBRANCH  19  20
ENDBRANCH  18  19
ENDBRANCH  15  17
ENDBRANCH   3  13
BRANCH   5  23
HETATM   23  O02 93J A 502       3.555  -3.384 -20.270  1.00  0.00    -0.343 OA
BRANCH  23  24
HETATM   24  C16 93J A 502       2.142  -3.422 -20.024  1.00  0.00     0.164 C
HETATM   25  C17 93J A 502       1.966  -3.254 -18.575  1.00  0.00     0.034 C
ENDBRANCH  23  24
ENDBRANCH   5  23
BRANCH   8  26
HETATM   26  N05 93J A 502       7.372   1.674 -20.106  1.00  0.00    -0.257 NA
HETATM   27  H05 93J A 502       7.833   0.905 -20.592  1.00  0.00     0.134 HD
BRANCH  26  28
HETATM   28  C19 93J A 502       8.233   2.578 -19.566  1.00  0.00     0.021 A
HETATM   29  C24 93J A 502       9.466   2.689 -20.197  1.00  0.00     0.023 A
HETATM   30  C23 93J A 502      10.424   3.565 -19.721  1.00  0.00     0.041 A
HETATM   31  C22 93J A 502      10.130   4.321 -18.628  1.00  0.00     0.142 A
HETATM   32  C21 93J A 502       8.927   4.194 -17.955  1.00  0.00     0.078 A
HETATM   33  F01 93J A 502      11.087   5.132 -18.175  1.00  0.00    -0.204 F
HETATM   34  C20 93J A 502       7.964   3.314 -18.413  1.00  0.00     0.042 A
HETATM   35 CL1  93J A 502       8.541   5.130 -16.564  1.00  0.00    -0.081 Cl
ENDBRANCH  26  28
ENDBRANCH   8  26
TORSDOF 8
