MODEL        1
REMARK THIS MODEL IS IDENTICAL TO THE INPUT LIGAND AND NOT FROM DOCKING
REMARK 921   NORMALIZED FREE ENERGY PREDICTED BY IDOCK:    1.11 KCAL/MOL
REMARK 922        TOTAL FREE ENERGY PREDICTED BY IDOCK:    0.87 KCAL/MOL
REMARK 923 INTER-LIGAND FREE ENERGY PREDICTED BY IDOCK:    1.24 KCAL/MOL
REMARK 924 INTRA-LIGAND FREE ENERGY PREDICTED BY IDOCK:   -0.37 KCAL/MOL
REMARK 927      BINDING AFFINITY PREDICTED BY RF-SCORE:    0.00 PKD
ROOT
HETATM    1  N1  T8S A 404       6.859  -4.372  21.362  1.00  0.00    -0.254 N  
HETATM    2  C10 T8S A 404       6.372  -4.215  20.110  1.00  0.00     1.162 C  
HETATM    3  C7  T8S A 404       6.465  -5.502  22.210  1.00  0.00    -0.363 C  
HETATM    4  C6  T8S A 404       5.801  -5.001  23.468  1.00  0.00    -0.323 C  
HETATM    5  C11 T8S A 404       6.922  -3.084  19.283  1.00  0.00     4.143 C  
HETATM    6  O1  T8S A 404       5.516  -4.955  19.644  1.00  0.00    -0.458 OA 
HETATM    7  C5  T8S A 404       6.740  -4.061  24.227  1.00  0.00    -0.300 C  
HETATM    8  C8  T8S A 404       7.793  -3.455  22.024  1.00  0.00    -0.285 C  
HETATM    9  C9  T8S A 404       7.187  -2.923  23.301  1.00  0.00    -0.265 C  
ENDROOT
BRANCH   7  10
HETATM   10  C4  T8S A 404       6.086  -3.487  25.472  1.00  0.00    -0.205 C  
HETATM   11  N   T8S A 404       6.905  -3.253  26.518  1.00  0.00    -0.194 N  
HETATM   12  O   T8S A 404       4.902  -3.134  25.468  1.00  0.00    -0.179 OA 
HETATM   13  C3  T8S A 404       7.420  -1.906  26.783  1.00  0.00    -0.223 C  
BRANCH  11  14
HETATM   14  C1  T8S A 404       7.437  -4.319  27.404  1.00  0.00    -0.335 C  
HETATM   15  C   T8S A 404       8.882  -4.649  27.087  1.00  0.00    -0.456 C  
HETATM   16  C2  T8S A 404       6.550  -5.547  27.435  1.00  0.00    -0.224 C  
ENDBRANCH  11  14
ENDBRANCH   7  10
TORSDOF 2
ENDMDL
