MODEL        1
REMARK THIS MODEL IS IDENTICAL TO THE INPUT LIGAND AND NOT FROM DOCKING
REMARK 921   NORMALIZED FREE ENERGY PREDICTED BY IDOCK:   -1.59 KCAL/MOL
REMARK 922        TOTAL FREE ENERGY PREDICTED BY IDOCK:   -4.58 KCAL/MOL
REMARK 923 INTER-LIGAND FREE ENERGY PREDICTED BY IDOCK:   -2.71 KCAL/MOL
REMARK 924 INTRA-LIGAND FREE ENERGY PREDICTED BY IDOCK:   -1.88 KCAL/MOL
REMARK 927      BINDING AFFINITY PREDICTED BY RF-SCORE:    0.00 PKD
ROOT
HETATM    1  C1  VHV A 401     -16.424  10.746  -2.513  1.00  0.00    -0.244 A  
HETATM    2  C2  VHV A 401     -17.287   9.926  -3.244  1.00  0.00    -0.296 A  
HETATM    3  C3  VHV A 401     -18.060   8.967  -2.585  1.00  0.00     0.160 A  
HETATM    4  C4  VHV A 401     -17.976   8.824  -1.197  1.00  0.00    -0.346 A  
HETATM    5  C6  VHV A 401     -16.330  10.591  -1.134  1.00  0.00    -0.299 A  
HETATM    6  C5  VHV A 401     -17.108   9.639  -0.486  1.00  0.00    -0.326 A  
ENDROOT
BRANCH   4   7
HETATM    7  C7  VHV A 401     -18.794   7.804  -0.431  1.00  0.00     0.217 C  
BRANCH   7   8
HETATM    8  O8  VHV A 401     -17.994   6.920   0.338  1.00  0.00    -0.359 OA 
BRANCH   8   9
HETATM    9  C9  VHV A 401     -17.125   6.023  -0.392  1.00  0.00    -0.340 C  
HETATM   10  N10 VHV A 401     -15.940   5.771   0.127  1.00  0.00    -0.326 N  
HETATM   11  O29 VHV A 401     -17.516   5.539  -1.441  1.00  0.00    -0.242 OA 
HETATM   12  H10 VHV A 401     -15.632   6.286   0.952  1.00  0.00     0.000 HD 
BRANCH  10  13
HETATM   13  C11 VHV A 401     -15.078   4.782  -0.452  1.00  0.00    -0.240 C  
HETATM   14  C30 VHV A 401     -13.679   5.336  -0.316  1.00  0.00    -0.236 C  
HETATM   15  C31 VHV A 401     -13.634   6.693  -1.015  1.00  0.00    -0.182 C  
HETATM   16  C32 VHV A 401     -12.644   4.350  -0.843  1.00  0.00    -0.150 C  
BRANCH  13  17
HETATM   17  C12 VHV A 401     -15.235   3.508   0.317  1.00  0.00    -0.332 C  
HETATM   18  N13 VHV A 401     -15.567   2.419  -0.369  1.00  0.00    -0.246 N  
HETATM   19  O33 VHV A 401     -15.083   3.496   1.532  1.00  0.00    -0.225 OA 
HETATM   20  H13 VHV A 401     -15.750   2.474  -1.371  1.00  0.00     0.000 HD 
BRANCH  18  21
HETATM   21  C14 VHV A 401     -15.665   1.153   0.329  1.00  0.00    -0.334 C  
BRANCH  21  22
HETATM   22  C15 VHV A 401     -14.297   0.600   0.579  1.00  0.00    -0.320 C  
HETATM   23  H16 VHV A 401     -14.656   0.482   2.588  1.00  0.00     0.000 HD 
HETATM   24  O38 VHV A 401     -13.533   0.428  -0.359  1.00  0.00    -0.224 OA 
HETATM   25  N16 VHV A 401     -13.979   0.320   1.842  1.00  0.00     0.325 N  
BRANCH  25  26
HETATM   26  C17 VHV A 401     -12.664  -0.217   2.153  1.00  0.00     0.800 C  
BRANCH  26  27
HETATM   27  C8  VHV A 401     -12.824  -1.701   2.455  1.00  0.00     3.944 C  
HETATM   28  H9  VHV A 401     -11.747  -3.101   3.301  1.00  0.00     0.000 HD 
HETATM   29  O9  VHV A 401     -11.647  -2.175   3.113  1.00  0.00     1.364 OA 
ENDBRANCH  26  27
BRANCH  26  30
HETATM   30  C19 VHV A 401     -12.004   0.536   3.296  1.00  0.00     0.084 C  
BRANCH  30  31
HETATM   31  C20 VHV A 401     -11.750   1.969   2.857  1.00  0.00    -0.342 C  
HETATM   32  C24 VHV A 401     -11.405   2.822   4.023  1.00  0.00    -0.441 C  
HETATM   33  N23 VHV A 401     -10.416   3.656   3.715  1.00  0.00    -0.236 NA 
HETATM   34  O26 VHV A 401     -11.985   2.728   5.091  1.00  0.00    -0.605 OA 
HETATM   35  C22 VHV A 401      -9.903   3.412   2.377  1.00  0.00    -0.324 C  
HETATM   36  C21 VHV A 401     -10.548   2.099   1.934  1.00  0.00    -0.299 C  
ENDBRANCH  30  31
ENDBRANCH  26  30
ENDBRANCH  25  26
ENDBRANCH  21  22
BRANCH  21  37
HETATM   37  C34 VHV A 401     -16.466   0.164  -0.509  1.00  0.00    -0.450 C  
HETATM   38  C36 VHV A 401     -18.673   0.718   0.591  1.00  0.00    -0.618 C  
HETATM   39  C37 VHV A 401     -18.626  -0.270  -1.742  1.00  0.00    -0.641 C  
HETATM   40  C35 VHV A 401     -17.904   0.625  -0.725  1.00  0.00    -0.378 C  
ENDBRANCH  21  37
ENDBRANCH  18  21
ENDBRANCH  13  17
ENDBRANCH  10  13
ENDBRANCH   8   9
ENDBRANCH   7   8
ENDBRANCH   4   7
TORSDOF 12
ENDMDL
