REMARK  7 active torsions:
REMARK  status: ('A' for Active; 'I' for Inactive)
REMARK    1  A    between atoms: C10B_1  and  O11B_2
REMARK    2  A    between atoms: C10B_1  and  C03B_14
REMARK    3  A    between atoms: O11B_2  and  P12B_3
REMARK    4  A    between atoms: P12B_3  and  N14B_5
REMARK    5  A    between atoms: P12B_3  and  N18B_10
REMARK    6  A    between atoms: N18B_10  and  C19B_12
REMARK    7  A    between atoms: N14B_5  and  C15B_7
ROOT
HETATM    1  C10BS8E A 401       8.993   0.765  22.620  1.00  0.00     0.220 C
ENDROOT
BRANCH   1   2
HETATM    2  O11BS8E A 401       8.091   0.202  21.717  1.00  0.00    -0.297 OA
BRANCH   2   3
HETATM    3  P12BS8E A 401       7.391  -1.241  22.086  1.00  0.00     0.329 P
HETATM    4  O13BS8E A 401       7.841  -1.717  23.393  1.00  0.00    -0.248 OA
BRANCH   3   5
HETATM    5  N14BS8E A 401       5.712  -1.017  22.112  1.00  0.00    -0.231 NA
HETATM    6  H1 BS8E A 401       5.159  -1.277  22.929  1.00  0.00     0.133 HD
BRANCH   5   7
HETATM    7  C15BS8E A 401       5.089  -0.445  20.938  1.00  0.00     0.103 C
HETATM    8  C16BS8E A 401       5.365   1.056  20.900  1.00  0.00     0.095 C
HETATM    9 BR1 BS8E A 401       4.066   1.890  19.724  1.00  0.00    -0.090 Br
ENDBRANCH   5   7
ENDBRANCH   3   5
BRANCH   3  10
HETATM   10  N18BS8E A 401       7.850  -2.319  20.850  1.00  0.00    -0.232 NA
HETATM   11  H1 BS8E A 401       7.950  -3.316  21.039  1.00  0.00     0.133 HD
BRANCH  10  12
HETATM   12  C19BS8E A 401       8.096  -1.788  19.520  1.00  0.00     0.088 C
HETATM   13  C20BS8E A 401       7.738  -2.818  18.452  1.00  0.00     0.021 C
ENDBRANCH  10  12
ENDBRANCH   3  10
ENDBRANCH   2   3
ENDBRANCH   1   2
BRANCH   1  14
HETATM   14  C03BS8E A 401      10.308  -0.006  22.601  1.00  0.00     0.046 A
HETATM   15  C01BS8E A 401      11.814   1.973  22.937  1.00  0.00     0.119 C
HETATM   16  C04BS8E A 401      10.477  -1.373  22.444  1.00  0.00     0.132 A
HETATM   17  N07BS8E A 401      13.929  -0.401  22.793  1.00  0.00     0.182 N
HETATM   18  N02BS8E A 401      11.553   0.557  22.753  1.00  0.00    -0.216 NA
HETATM   19  O09BS8E A 401      14.708  -1.354  22.133  1.00  0.00    -0.154 OA
HETATM   20  N05BS8E A 401      11.835  -1.658  22.497  1.00  0.00    -0.225 NA
HETATM   21  O08BS8E A 401      14.518   0.587  23.584  1.00  0.00    -0.154 OA
HETATM   22  C06BS8E A 401      12.495  -0.485  22.680  1.00  0.00     0.247 A
ENDBRANCH   1  14
TORSDOF 7
