MODEL        1
REMARK THIS MODEL IS IDENTICAL TO THE INPUT LIGAND AND NOT FROM DOCKING
REMARK 921   NORMALIZED FREE ENERGY PREDICTED BY IDOCK:   -3.63 KCAL/MOL
REMARK 922        TOTAL FREE ENERGY PREDICTED BY IDOCK:   -3.64 KCAL/MOL
REMARK 923 INTER-LIGAND FREE ENERGY PREDICTED BY IDOCK:   -3.84 KCAL/MOL
REMARK 924 INTRA-LIGAND FREE ENERGY PREDICTED BY IDOCK:    0.21 KCAL/MOL
REMARK 927      BINDING AFFINITY PREDICTED BY RF-SCORE:    0.00 PKD
ROOT
HETATM    1  N1  X1Y A 503     -22.777   3.324  28.739  1.00  0.00    -0.313 NA 
HETATM    2  C3  X1Y A 503     -23.301   3.579  27.470  1.00  0.00    -0.174 C  
HETATM    3  H2  X1Y A 503     -20.073   4.220  30.126  1.00  0.00     0.000 HD 
HETATM    4  O2  X1Y A 503     -21.010   4.234  29.967  1.00  0.00     0.018 OA 
HETATM    5  C2  X1Y A 503     -22.301   3.828  26.398  1.00  0.00     0.007 C  
HETATM    6  C10 X1Y A 503     -21.352   3.303  28.981  1.00  0.00    -0.110 C  
HETATM    7  C1  X1Y A 503     -21.116   4.461  26.915  1.00  0.00    -0.253 C  
HETATM    8  H2  X1Y A 503     -20.194   2.741  27.333  1.00  0.00     0.000 HD 
HETATM    9  O1  X1Y A 503     -21.516   5.704  27.638  1.00  0.00    -0.189 OA 
HETATM   10  N2  X1Y A 503     -20.493   3.598  27.799  1.00  0.00    -0.442 NA 
HETATM   11  H1  X1Y A 503     -20.734   6.122  27.979  1.00  0.00     0.000 HD 
ENDROOT
BRANCH   1  12
HETATM   12  C4  X1Y A 503     -23.565   2.606  29.516  1.00  0.00    -0.094 C  
HETATM   13  C8  X1Y A 503     -25.996   2.476  30.308  1.00  0.00    -0.542 C  
HETATM   14  C6  X1Y A 503     -24.051   1.761  31.894  1.00  0.00    -0.731 C  
HETATM   15  C9  X1Y A 503     -24.986   3.246  29.459  1.00  0.00    -0.429 C  
HETATM   16  C5  X1Y A 503     -23.056   2.510  31.007  1.00  0.00    -0.081 C  
HETATM   17  C7  X1Y A 503     -25.509   2.320  31.792  1.00  0.00    -0.512 C  
ENDBRANCH   1  12
TORSDOF 1
ENDMDL
