REMARK  2 active torsions:
REMARK  status: ('A' for Active; 'I' for Inactive)
REMARK    1  A    between atoms: N_8  and  C7_11
REMARK    2  A    between atoms: C7_11  and  C6_12
ROOT
HETATM    1  N1  T4Y A 404       6.707  -2.888  21.010  1.00  0.00    -0.243 N
HETATM    2  C10 T4Y A 404       6.465  -1.466  21.285  1.00  0.00     0.094 C
HETATM    3  C13 T4Y A 404       6.566  -3.381  19.767  1.00  0.00     0.200 C
HETATM    4  O   T4Y A 404       5.940  -4.416  19.555  1.00  0.00    -0.280 OA
HETATM    5  C14 T4Y A 404       7.256  -2.704  18.592  1.00  0.00     0.105 C
HETATM    6  C9  T4Y A 404       7.737  -0.660  21.242  1.00  0.00     0.031 C
HETATM    7  C8  T4Y A 404       8.910  -1.501  21.664  1.00  0.00     0.086 C
HETATM    8  N   T4Y A 404       8.798  -1.984  23.049  1.00  0.00    -0.297 NA
HETATM    9  C12 T4Y A 404       7.765  -3.004  23.313  1.00  0.00     0.100 C
HETATM   10  C11 T4Y A 404       7.187  -3.740  22.106  1.00  0.00     0.108 C
ENDROOT
BRANCH   8  11
HETATM   11  C7  T4Y A 404      10.108  -2.327  23.615  1.00  0.00     0.119 C
BRANCH  11  12
HETATM   12  C6  T4Y A 404      10.976  -1.097  23.734  1.00  0.00    -0.030 A
HETATM   13  C1  T4Y A 404      12.179  -0.958  23.020  1.00  0.00    -0.046 A
HETATM   14  C   T4Y A 404      12.723  -2.048  22.132  1.00  0.00     0.044 C
HETATM   15  C2  T4Y A 404      12.910   0.211  23.159  1.00  0.00     0.003 A
HETATM   16  C3  T4Y A 404      12.470   1.244  23.962  1.00  0.00     0.000 A
HETATM   17  C4  T4Y A 404      11.282   1.123  24.643  1.00  0.00     0.000 A
HETATM   18  C5  T4Y A 404      10.540  -0.035  24.524  1.00  0.00     0.005 A
ENDBRANCH  11  12
ENDBRANCH   8  11
TORSDOF 2
