MODEL        1
REMARK THIS MODEL IS IDENTICAL TO THE INPUT LIGAND AND NOT FROM DOCKING
REMARK 921   NORMALIZED FREE ENERGY PREDICTED BY IDOCK:   -4.51 KCAL/MOL
REMARK 922        TOTAL FREE ENERGY PREDICTED BY IDOCK:   -6.24 KCAL/MOL
REMARK 923 INTER-LIGAND FREE ENERGY PREDICTED BY IDOCK:   -5.82 KCAL/MOL
REMARK 924 INTRA-LIGAND FREE ENERGY PREDICTED BY IDOCK:   -0.42 KCAL/MOL
REMARK 927      BINDING AFFINITY PREDICTED BY RF-SCORE:    0.00 PKD
ROOT
HETATM    1  N1  UHM A 405      12.747  -1.355  22.687  1.00  0.00    -0.429 NA 
HETATM    2  S   UHM A 405      12.551  -1.336  24.346  1.00  0.00    -0.398 SA 
HETATM    3  C4  UHM A 405      10.899  -1.665  24.279  1.00  0.00    -0.232 A  
HETATM    4  C2  UHM A 405      10.498  -1.791  22.982  1.00  0.00    -0.434 A  
HETATM    5  C3  UHM A 405      11.581  -1.601  22.106  1.00  0.00    -0.370 A  
ENDROOT
BRANCH   4   6
HETATM    6  C1  UHM A 405       9.125  -2.131  22.509  1.00  0.00    -0.367 C  
BRANCH   6   7
HETATM    7  N   UHM A 405       8.668  -1.252  21.454  1.00  0.00    -0.270 N  
HETATM    8  C   UHM A 405       7.427  -1.339  20.967  1.00  0.00     0.049 C  
HETATM    9  H   UHM A 405       9.306  -0.552  21.075  1.00  0.00     0.000 HD 
HETATM   10  O   UHM A 405       6.698  -2.301  21.197  1.00  0.00    -0.064 OA 
BRANCH   8  11
HETATM   11  C5  UHM A 405       6.934  -0.198  20.128  1.00  0.00    -0.367 A  
HETATM   12  C6  UHM A 405       6.946  -0.418  18.748  1.00  0.00    -0.411 A  
HETATM   13  C7  UHM A 405       6.261   0.433  17.896  1.00  0.00    -0.539 A  
HETATM   14  C8  UHM A 405       5.548   1.498  18.402  1.00  0.00    -0.475 A  
HETATM   15  C9  UHM A 405       5.567   1.773  19.761  1.00  0.00    -0.379 A  
HETATM   16  C10 UHM A 405       6.298   0.954  20.610  1.00  0.00    -0.334 A  
BRANCH  16  17
HETATM   17  O1  UHM A 405       6.530   1.283  21.924  1.00  0.00    -0.266 OA 
BRANCH  17  18
HETATM   18  C11 UHM A 405       7.827   1.801  22.273  1.00  0.00    -0.230 C  
HETATM   19  C12 UHM A 405       7.901   3.266  22.415  1.00  0.00    -0.244 C  
HETATM   20  N2  UHM A 405       8.008   4.398  22.524  1.00  0.00    -0.064 NA 
ENDBRANCH  17  18
ENDBRANCH  16  17
ENDBRANCH   8  11
ENDBRANCH   6   7
ENDBRANCH   4   6
TORSDOF 5
ENDMDL
