REMARK 16 active torsions:
REMARK  status: ('A' for Active; 'I' for Inactive)
REMARK    1  A    between atoms: C1_1  and  N3_3
REMARK    2  A    between atoms: C1_1  and  N18_19
REMARK    3  A    between atoms: N18_19  and  C19_21
REMARK    4  A    between atoms: N3_3  and  C4_5
REMARK    5  A    between atoms: C19_21  and  C24_22
REMARK    6  A    between atoms: C4_5  and  C10_11
REMARK    7  A    between atoms: C19_21  and  C20_51
REMARK    8  A    between atoms: C10_11  and  S11_12
REMARK    9  A    between atoms: C28_30  and  C34_32
REMARK   10  A    between atoms: N36_33  and  C37_36
REMARK   11  A    between atoms: C37_36  and  C43_37
REMARK   12  A    between atoms: C37_36  and  C38_47
REMARK   13  A    between atoms: C43_37  and  C49_40
REMARK   14  A    between atoms: C38_47  and  C39_48
REMARK   15  A    between atoms: C39_48  and  C40_49
REMARK   16  A    between atoms: N45_41  and  C46_44
ROOT
HETATM    1  C1  NNA A 401     -13.972   4.249  44.998  1.00  0.00     0.275 C
HETATM    2  O2  NNA A 401     -14.781   3.668  45.656  1.00  0.00    -0.261 OA
ENDROOT
BRANCH   1   3
HETATM    3  N3  NNA A 401     -13.055   5.278  45.573  1.00  0.00    -0.220 N
HETATM    4  H3  NNA A 401     -12.374   5.719  44.955  1.00  0.00     0.134 HD
BRANCH   3   5
HETATM    5  C4  NNA A 401     -13.086   5.695  47.014  1.00  0.00     0.141 C
HETATM    6  C5  NNA A 401     -11.915   6.664  47.207  1.00  0.00     0.045 C
HETATM    7  C6  NNA A 401     -13.034   4.465  47.965  1.00  0.00     0.045 C
HETATM    8  C7  NNA A 401     -10.608   5.863  47.120  1.00  0.00     0.003 C
HETATM    9  C9  NNA A 401     -10.526   4.973  48.363  1.00  0.00     0.000 C
HETATM   10  C8  NNA A 401     -11.644   3.924  48.364  1.00  0.00     0.003 C
BRANCH   5  11
HETATM   11  C10 NNA A 401     -14.419   6.492  47.210  1.00  0.00    -0.478 C
BRANCH  11  12
HETATM   12  S11 NNA A 401     -14.667   7.892  46.018  1.00  0.00     2.502 S
HETATM   13  C15 NNA A 401     -17.098   6.768  45.183  1.00  0.00     0.190 C
HETATM   14  C17 NNA A 401     -16.748   9.320  44.927  1.00  0.00     0.190 C
HETATM   15  O12 NNA A 401     -13.974   7.355  44.824  1.00  0.00    -0.933 OA
HETATM   16  O13 NNA A 401     -14.001   9.051  46.743  1.00  0.00    -0.933 OA
HETATM   17  C16 NNA A 401     -17.138   8.288  47.253  1.00  0.00     0.190 C
HETATM   18  C14 NNA A 401     -16.512   8.070  45.836  1.00  0.00    -0.888 C
ENDBRANCH  11  12
ENDBRANCH   5  11
ENDBRANCH   3   5
ENDBRANCH   1   3
BRANCH   1  19
HETATM   19  N18 NNA A 401     -13.857   3.961  43.542  1.00  0.00    -0.233 N
HETATM   20  H18 NNA A 401     -13.186   4.451  42.950  1.00  0.00     0.132 HD
BRANCH  19  21
HETATM   21  C19 NNA A 401     -14.744   2.951  43.008  1.00  0.00     0.151 C
BRANCH  21  22
HETATM   22  C24 NNA A 401     -13.954   1.642  42.955  1.00  0.00     0.226 C
HETATM   23  C32 NNA A 401     -15.044  -2.555  47.165  1.00  0.00     0.016 C
HETATM   24  C29 NNA A 401     -14.272  -1.611  44.749  1.00  0.00     0.053 C
HETATM   25  N26 NNA A 401     -14.536   0.459  43.677  1.00  0.00    -0.208 N
HETATM   26  O25 NNA A 401     -12.913   1.522  42.369  1.00  0.00    -0.277 OA
HETATM   27  C30 NNA A 401     -15.549  -0.863  45.225  1.00  0.00    -0.046 C
HETATM   28  C27 NNA A 401     -15.676   0.423  44.364  1.00  0.00     0.064 C
HETATM   29  C33 NNA A 401     -13.684  -0.274  46.922  1.00  0.00     0.016 C
HETATM   30  C28 NNA A 401     -13.800  -0.934  43.670  1.00  0.00     0.159 C
HETATM   31  C31 NNA A 401     -14.528  -1.396  46.273  1.00  0.00    -0.004 C
BRANCH  30  32
HETATM   32  C34 NNA A 401     -14.090  -1.553  42.293  1.00  0.00     0.220 C
HETATM   33  N36 NNA A 401     -12.983  -1.921  41.348  1.00  0.00    -0.251 N
HETATM   34  O35 NNA A 401     -15.215  -1.679  41.953  1.00  0.00    -0.278 OA
HETATM   35  H36 NNA A 401     -12.006  -1.801  41.615  1.00  0.00     0.131 HD
BRANCH  33  36
HETATM   36  C37 NNA A 401     -13.337  -2.450  40.051  1.00  0.00     0.098 C
BRANCH  36  37
HETATM   37  C43 NNA A 401     -12.681  -3.790  40.013  1.00  0.00     0.214 C
HETATM   38  H42 NNA A 401     -12.762  -5.394  41.004  1.00  0.00     0.210 HD
HETATM   39  O42 NNA A 401     -13.180  -4.541  41.028  1.00  0.00    -0.381 OA
BRANCH  37  40
HETATM   40  C49 NNA A 401     -13.159  -4.496  38.765  1.00  0.00     0.231 C
HETATM   41  N45 NNA A 401     -14.369  -5.379  38.766  1.00  0.00    -0.253 N
HETATM   42  O44 NNA A 401     -12.540  -4.357  37.731  1.00  0.00    -0.277 OA
HETATM   43  H45 NNA A 401     -14.807  -5.590  39.662  1.00  0.00     0.131 HD
BRANCH  41  44
HETATM   44  C46 NNA A 401     -14.947  -5.944  37.585  1.00  0.00     0.061 C
HETATM   45  C47 NNA A 401     -15.741  -4.889  36.781  1.00  0.00     0.020 C
HETATM   46  C48 NNA A 401     -16.487  -5.971  37.585  1.00  0.00     0.020 C
ENDBRANCH  41  44
ENDBRANCH  37  40
ENDBRANCH  36  37
BRANCH  36  47
HETATM   47  C38 NNA A 401     -12.885  -1.522  38.880  1.00  0.00     0.022 C
BRANCH  47  48
HETATM   48  C39 NNA A 401     -12.361  -0.113  39.364  1.00  0.00     0.001 C
BRANCH  48  49
HETATM   49  C40 NNA A 401     -12.374   1.073  38.331  1.00  0.00    -0.003 C
HETATM   50  C41 NNA A 401     -11.048   1.138  37.509  1.00  0.00     0.004 C
ENDBRANCH  48  49
ENDBRANCH  47  48
ENDBRANCH  36  47
ENDBRANCH  33  36
ENDBRANCH  30  32
ENDBRANCH  21  22
BRANCH  21  51
HETATM   51  C20 NNA A 401     -15.314   3.357  41.628  1.00  0.00    -0.014 C
HETATM   52  C23 NNA A 401     -14.248   3.955  40.685  1.00  0.00     0.012 C
HETATM   53  C21 NNA A 401     -15.954   2.148  40.913  1.00  0.00     0.012 C
HETATM   54  C22 NNA A 401     -16.414   4.388  41.949  1.00  0.00     0.012 C
ENDBRANCH  21  51
ENDBRANCH  19  21
ENDBRANCH   1  19
TORSDOF 16
