MODEL        1
REMARK THIS MODEL IS IDENTICAL TO THE INPUT LIGAND AND NOT FROM DOCKING
REMARK 921   NORMALIZED FREE ENERGY PREDICTED BY IDOCK:   -2.53 KCAL/MOL
REMARK 922        TOTAL FREE ENERGY PREDICTED BY IDOCK:   -6.59 KCAL/MOL
REMARK 923 INTER-LIGAND FREE ENERGY PREDICTED BY IDOCK:   -4.59 KCAL/MOL
REMARK 924 INTRA-LIGAND FREE ENERGY PREDICTED BY IDOCK:   -2.00 KCAL/MOL
REMARK 927      BINDING AFFINITY PREDICTED BY RF-SCORE:    0.00 PKD
ROOT
HETATM    1  CBN SV6 A 602      11.963  22.868  26.256  1.00  0.00    -0.267 A  
HETATM    2  NAF SV6 A 602      11.962  24.189  26.470  1.00  0.00    -0.212 NA 
HETATM    3  CBQ SV6 A 602      12.255  21.965  27.261  1.00  0.00    -0.096 A  
HETATM    4  CBO SV6 A 602      12.289  24.589  27.698  1.00  0.00    -0.198 A  
HETATM    5  NAG SV6 A 602      12.582  22.370  28.491  1.00  0.00    -0.290 NA 
HETATM    6  CBP SV6 A 602      12.604  23.692  28.694  1.00  0.00    -0.181 A  
ENDROOT
BRANCH   1   7
HETATM    7  CBB SV6 A 602      11.584  22.371  24.894  1.00  0.00    -0.303 C  
HETATM    8  HAD SV6 A 602      10.887  20.703  25.773  1.00  0.00     0.000 HD 
HETATM    9  NAD SV6 A 602      11.133  21.114  24.872  1.00  0.00    -0.241 N  
HETATM   10  OBW SV6 A 602      11.673  23.093  23.901  1.00  0.00     0.322 OA 
BRANCH   9  11
HETATM   11  CAY SV6 A 602      10.955  20.271  23.708  1.00  0.00    -0.295 C  
BRANCH  11  12
HETATM   12  CAX SV6 A 602      10.011  19.154  24.169  1.00  0.00    -0.269 C  
HETATM   13  NAC SV6 A 602       9.033  18.767  23.348  1.00  0.00    -0.418 N  
HETATM   14  OBU SV6 A 602      10.175  18.650  25.276  1.00  0.00    -0.345 OA 
HETATM   15  HAC SV6 A 602       8.847  19.293  22.494  1.00  0.00     0.000 HD 
BRANCH  13  16
HETATM   16  CAW SV6 A 602       8.231  17.596  23.668  1.00  0.00    -0.221 C  
BRANCH  16  17
HETATM   17  CAZ SV6 A 602       6.725  17.896  23.740  1.00  0.00    -0.155 C  
HETATM   18  CBA SV6 A 602       6.180  18.481  22.434  1.00  0.00    -0.330 C  
HETATM   19  CBD SV6 A 602       5.961  16.609  24.065  1.00  0.00    -0.124 C  
HETATM   20  CBC SV6 A 602       6.452  18.892  24.866  1.00  0.00    -0.158 C  
ENDBRANCH  16  17
BRANCH  16  21
HETATM   21  CAV SV6 A 602       8.630  16.410  22.774  1.00  0.00    -0.300 C  
HETATM   22  N   SV6 A 602       9.278  15.403  23.371  1.00  0.00    -0.244 N  
HETATM   23  OBT SV6 A 602       8.346  16.339  21.589  1.00  0.00    -0.390 OA 
HETATM   24  CA  SV6 A 602       9.511  14.098  22.750  1.00  0.00    -0.298 C  
HETATM   25  CBF SV6 A 602      12.593  14.859  24.091  1.00  0.00    -0.548 C  
HETATM   26  CB  SV6 A 602      10.638  13.501  23.608  1.00  0.00    -0.405 C  
HETATM   27  CBE SV6 A 602      12.090  13.768  23.154  1.00  0.00    -0.493 C  
HETATM   28  CD2 SV6 A 602      11.977  14.459  25.394  1.00  0.00    -0.591 C  
HETATM   29  CG  SV6 A 602      10.521  14.201  24.988  1.00  0.00    -0.336 C  
HETATM   30  CD1 SV6 A 602       9.773  15.500  24.744  1.00  0.00    -0.270 C  
BRANCH  24  31
HETATM   31  C   SV6 A 602       8.233  13.255  22.710  1.00  0.00    -0.294 C  
HETATM   32  NAE SV6 A 602       7.723  13.032  21.499  1.00  0.00    -0.126 N  
HETATM   33  O   SV6 A 602       7.697  12.848  23.740  1.00  0.00    -0.192 OA 
HETATM   34  HAE SV6 A 602       8.252  13.339  20.683  1.00  0.00     0.000 HD 
BRANCH  32  35
HETATM   35  CAH SV6 A 602       6.430  12.363  21.287  1.00  0.00     0.985 C  
BRANCH  35  36
HETATM   36  CAJ SV6 A 602       5.637  12.981  20.123  1.00  0.00     0.594 C  
BRANCH  36  37
HETATM   37  CAK SV6 A 602       5.320  14.469  20.130  1.00  0.00    -0.333 C  
HETATM   38  CAL SV6 A 602       5.130  15.019  18.695  1.00  0.00    -0.524 C  
ENDBRANCH  36  37
ENDBRANCH  35  36
BRANCH  35  39
HETATM   39  CAI SV6 A 602       6.679  10.897  20.961  1.00  0.00     3.962 C  
HETATM   40  HBR SV6 A 602       8.424  10.803  21.764  1.00  0.00     0.000 HD 
HETATM   41  OBR SV6 A 602       7.616  10.305  21.809  1.00  0.00     0.912 OA 
BRANCH  39  42
HETATM   42  CAM SV6 A 602       5.397  10.107  21.033  1.00  0.00     1.030 C  
HETATM   43  HAA SV6 A 602       5.922   9.409  22.878  1.00  0.00     0.000 HD 
HETATM   44  NAA SV6 A 602       5.208   9.392  22.150  1.00  0.00    -0.348 N  
HETATM   45  OBS SV6 A 602       4.605  10.115  20.093  1.00  0.00    -0.236 OA 
BRANCH  44  46
HETATM   46  CAN SV6 A 602       4.025   8.602  22.348  1.00  0.00    -0.324 C  
HETATM   47  CAO SV6 A 602       3.616   8.305  23.750  1.00  0.00    -0.310 C  
HETATM   48  CAP SV6 A 602       2.820   9.263  22.929  1.00  0.00    -0.177 C  
ENDBRANCH  44  46
ENDBRANCH  39  42
ENDBRANCH  35  39
ENDBRANCH  32  35
ENDBRANCH  24  31
ENDBRANCH  16  21
ENDBRANCH  13  16
ENDBRANCH  11  12
BRANCH  11  49
HETATM   49  CBH SV6 A 602      12.378  19.900  23.243  1.00  0.00    -0.353 C  
HETATM   50  CBI SV6 A 602      12.860  20.853  22.139  1.00  0.00    -0.389 C  
HETATM   51  CBJ SV6 A 602      13.960  20.236  21.272  1.00  0.00    -0.092 C  
HETATM   52  CBM SV6 A 602      12.544  18.437  22.842  1.00  0.00    -0.467 C  
HETATM   53  CBK SV6 A 602      14.821  19.273  22.064  1.00  0.00     0.062 C  
HETATM   54  CBL SV6 A 602      14.000  18.082  22.532  1.00  0.00    -0.316 C  
ENDBRANCH  11  49
ENDBRANCH   9  11
ENDBRANCH   1   7
TORSDOF 14
ENDMDL
