REMARK  2 active torsions:
REMARK  status: ('A' for Active; 'I' for Inactive)
REMARK    1  A    between atoms: N_7  and  S_10
REMARK    2  A    between atoms: S_10  and  C6_13
ROOT
HETATM    1  N1  T71 A 404       7.171  -3.379  21.057  1.00  0.00    -0.241 N
HETATM    2  C12 T71 A 404       6.648  -3.523  19.818  1.00  0.00     0.200 C
HETATM    3  C10 T71 A 404       6.714  -4.199  22.180  1.00  0.00     0.120 C
HETATM    4  O2  T71 A 404       5.757  -4.325  19.566  1.00  0.00    -0.280 OA
HETATM    5  C13 T71 A 404       7.224  -2.678  18.714  1.00  0.00     0.105 C
HETATM    6  C11 T71 A 404       6.285  -3.316  23.319  1.00  0.00     0.218 C
HETATM    7  N   T71 A 404       7.437  -2.490  23.705  1.00  0.00    -0.880 N
HETATM    8  C8  T71 A 404       7.854  -1.598  22.612  1.00  0.00     0.218 C
HETATM    9  C9  T71 A 404       8.240  -2.442  21.423  1.00  0.00     0.120 C
ENDROOT
BRANCH   7  10
HETATM   10  S   T71 A 404       7.474  -1.932  25.245  1.00  0.00     2.572 S
HETATM   11  O   T71 A 404       8.595  -1.053  25.359  1.00  0.00    -0.924 OA
HETATM   12  O1  T71 A 404       6.161  -1.449  25.543  1.00  0.00    -0.924 OA
BRANCH  10  13
HETATM   13  C6  T71 A 404       7.783  -3.349  26.256  1.00  0.00    -0.584 A
HETATM   14  C4  T71 A 404       8.942  -4.112  26.060  1.00  0.00     0.052 A
HETATM   15  C5  T71 A 404       9.993  -3.801  25.029  1.00  0.00     0.063 C
HETATM   16  C3  T71 A 404       9.127  -5.224  26.877  1.00  0.00     0.021 A
HETATM   17  C2  T71 A 404       8.194  -5.566  27.841  1.00  0.00     0.006 A
HETATM   18  C1  T71 A 404       7.047  -4.815  28.028  1.00  0.00    -0.034 A
HETATM   19  C7  T71 A 404       6.849  -3.705  27.219  1.00  0.00     0.126 A
HETATM   20  C   T71 A 404       6.034  -5.192  29.080  1.00  0.00     0.045 C
ENDBRANCH  10  13
ENDBRANCH   7  10
TORSDOF 2
