MODEL        1
REMARK THIS MODEL IS IDENTICAL TO THE INPUT LIGAND AND NOT FROM DOCKING
REMARK 921   NORMALIZED FREE ENERGY PREDICTED BY IDOCK:   -1.43 KCAL/MOL
REMARK 922        TOTAL FREE ENERGY PREDICTED BY IDOCK:   -3.55 KCAL/MOL
REMARK 923 INTER-LIGAND FREE ENERGY PREDICTED BY IDOCK:   -2.35 KCAL/MOL
REMARK 924 INTRA-LIGAND FREE ENERGY PREDICTED BY IDOCK:   -1.20 KCAL/MOL
REMARK 927      BINDING AFFINITY PREDICTED BY RF-SCORE:    0.00 PKD
ROOT
HETATM    1  C28 U5G A 401      25.630  -9.049  11.385  1.00  0.00    -0.289 C  
HETATM    2  O34 U5G A 401      26.549  -9.317  10.690  1.00  0.00    -0.273 OA 
ENDROOT
BRANCH   1   3
HETATM    3  N29 U5G A 401      24.675  -7.979  11.044  1.00  0.00    -0.489 N  
HETATM    4  C32 U5G A 401      26.186  -6.490   9.725  1.00  0.00    -0.272 C  
HETATM    5  C31 U5G A 401      24.675  -8.154   8.587  1.00  0.00    -0.232 C  
HETATM    6  C33 U5G A 401      23.664  -6.153   9.747  1.00  0.00    -0.466 C  
HETATM    7  H29 U5G A 401      23.907  -7.773  11.682  1.00  0.00     0.000 HD 
HETATM    8  C30 U5G A 401      24.809  -7.194   9.788  1.00  0.00    -0.286 C  
ENDBRANCH   1   3
BRANCH   1   9
HETATM    9  N27 U5G A 401      25.404  -9.783  12.646  1.00  0.00    -0.443 N  
HETATM   10  H27 U5G A 401      24.610  -9.553  13.243  1.00  0.00     0.000 HD 
BRANCH   9  11
HETATM   11  C22 U5G A 401      26.320 -10.828  13.020  1.00  0.00    -0.180 C  
BRANCH  11  12
HETATM   12  C21 U5G A 401      25.565 -12.132  13.223  1.00  0.00    -0.264 C  
HETATM   13  C17 U5G A 401      24.842 -13.831   9.977  1.00  0.00    -0.422 C  
HETATM   14  N20 U5G A 401      25.971 -13.323  12.395  1.00  0.00    -0.243 N  
HETATM   15  C18 U5G A 401      26.172 -15.819   9.068  1.00  0.00    -0.671 C  
HETATM   16  C19 U5G A 401      27.038 -13.393  11.302  1.00  0.00    -0.369 C  
HETATM   17  C16 U5G A 401      25.998 -14.884  10.309  1.00  0.00    -0.362 C  
HETATM   18  O35 U5G A 401      24.687 -12.237  13.997  1.00  0.00    -0.517 OA 
HETATM   19  C13 U5G A 401      25.388 -14.697  12.383  1.00  0.00    -0.348 C  
HETATM   20  C14 U5G A 401      26.192 -15.707  11.612  1.00  0.00    -0.476 C  
HETATM   21  C15 U5G A 401      27.368 -14.857  11.055  1.00  0.00    -0.146 C  
BRANCH  19  22
HETATM   22  C12 U5G A 401      25.608 -15.161  13.840  1.00  0.00    -0.308 C  
HETATM   23  H11 U5G A 401      23.519 -15.626  14.283  1.00  0.00     0.000 HD 
HETATM   24  O36 U5G A 401      26.689 -15.159  14.314  1.00  0.00    -0.197 OA 
HETATM   25  N11 U5G A 401      24.465 -15.621  14.664  1.00  0.00     0.506 N  
BRANCH  25  26
HETATM   26  C05 U5G A 401      24.716 -16.065  16.024  1.00  0.00     0.878 C  
BRANCH  26  27
HETATM   27  C03 U5G A 401      24.122 -17.453  16.201  1.00  0.00     4.076 C  
HETATM   28  H04 U5G A 401      24.303 -19.194  15.378  1.00  0.00     0.000 HD 
HETATM   29  O04 U5G A 401      24.674 -18.327  15.267  1.00  0.00     0.781 OA 
BRANCH  27  30
HETATM   30  C02 U5G A 401      24.495 -17.962  17.594  1.00  0.00     0.814 C  
HETATM   31 1H37 U5G A 401      26.080 -18.871  18.700  1.00  0.00     0.000 HD 
HETATM   32  O01 U5G A 401      23.734 -17.891  18.486  1.00  0.00    -0.410 OA 
HETATM   33 2H37 U5G A 401      26.529 -17.855  17.461  1.00  0.00     0.000 HD 
HETATM   34  N37 U5G A 401      25.831 -18.531  17.771  1.00  0.00    -0.265 N  
ENDBRANCH  27  30
ENDBRANCH  26  27
BRANCH  26  35
HETATM   35  C06 U5G A 401      24.060 -15.090  17.014  1.00  0.00     0.335 C  
BRANCH  35  36
HETATM   36  C07 U5G A 401      24.992 -13.802  17.112  1.00  0.00    -0.274 C  
HETATM   37  C10 U5G A 401      24.545 -12.888  18.134  1.00  0.00    -0.339 C  
HETATM   38  C08 U5G A 401      26.314 -14.155  17.573  1.00  0.00    -0.299 C  
HETATM   39  C09 U5G A 401      26.146 -12.819  18.540  1.00  0.00    -0.237 C  
ENDBRANCH  35  36
ENDBRANCH  26  35
ENDBRANCH  25  26
ENDBRANCH  19  22
ENDBRANCH  11  12
BRANCH  11  40
HETATM   40  C23 U5G A 401      27.026 -10.411  14.328  1.00  0.00    -0.130 C  
HETATM   41  C26 U5G A 401      25.958 -10.067  15.390  1.00  0.00    -0.276 C  
HETATM   42  C25 U5G A 401      27.898  -9.160  14.055  1.00  0.00    -0.131 C  
HETATM   43  C24 U5G A 401      27.899 -11.580  14.842  1.00  0.00    -0.127 C  
ENDBRANCH  11  40
ENDBRANCH   9  11
ENDBRANCH   1   9
TORSDOF 11
ENDMDL
