REMARK  2 active torsions:
REMARK  status: ('A' for Active; 'I' for Inactive)
REMARK    1  A    between atoms: N05_3  and  C06_9
REMARK    2  A    between atoms: C06_9  and  C07_10
ROOT
HETATM    1  C13 T0Y A 404       8.230  -4.400  25.745  1.00  0.00     0.046 C
HETATM    2  C12 T0Y A 404       8.489  -2.963  25.284  1.00  0.00     0.087 C
HETATM    3  N05 T0Y A 404       9.699  -2.817  24.495  1.00  0.00    -0.302 NA
HETATM    4  C04 T0Y A 404      10.810  -3.401  25.207  1.00  0.00     0.087 C
HETATM    5  C02 T0Y A 404       9.333  -4.960  26.482  1.00  0.00     0.117 C
HETATM    6  C03 T0Y A 404      10.569  -4.811  25.756  1.00  0.00     0.046 C
HETATM    7  H01 T0Y A 404      10.193  -4.739  28.238  1.00  0.00     0.210 HD
HETATM    8  O01 T0Y A 404       9.465  -4.370  27.752  1.00  0.00    -0.392 OA
ENDROOT
BRANCH   3   9
HETATM    9  C06 T0Y A 404       9.860  -1.628  24.199  1.00  0.00     0.088 C
BRANCH   9  10
HETATM   10  C07 T0Y A 404      11.235  -1.274  23.615  1.00  0.00     0.014 C
HETATM   11  C11 T0Y A 404      11.867  -1.913  22.500  1.00  0.00     0.074 C
HETATM   12  S10 T0Y A 404      13.311  -1.246  22.208  1.00  0.00    -0.160 SA
HETATM   13  C09 T0Y A 404      13.356  -0.122  23.370  1.00  0.00     0.069 C
HETATM   14  C08 T0Y A 404      12.149  -0.172  24.144  1.00  0.00     0.016 C
ENDBRANCH   9  10
ENDBRANCH   3   9
TORSDOF 2
