MODEL        1
REMARK THIS MODEL IS IDENTICAL TO THE INPUT LIGAND AND NOT FROM DOCKING
REMARK 921   NORMALIZED FREE ENERGY PREDICTED BY IDOCK:   -4.19 KCAL/MOL
REMARK 922        TOTAL FREE ENERGY PREDICTED BY IDOCK:   -4.50 KCAL/MOL
REMARK 923 INTER-LIGAND FREE ENERGY PREDICTED BY IDOCK:   -4.44 KCAL/MOL
REMARK 924 INTRA-LIGAND FREE ENERGY PREDICTED BY IDOCK:   -0.06 KCAL/MOL
REMARK 927      BINDING AFFINITY PREDICTED BY RF-SCORE:    0.00 PKD
ROOT
HETATM    1  C10 SZY A 404       5.728   0.516  20.398  1.00  0.00    -0.358 A  
HETATM    2  C05 SZY A 404       6.924  -0.116  20.067  1.00  0.00    -0.364 A  
HETATM    3  C11 SZY A 404       5.281   0.622  21.854  1.00  0.00    -0.104 C  
HETATM    4  C06 SZY A 404       7.301  -0.183  18.732  1.00  0.00    -0.286 A  
HETATM    5  C09 SZY A 404       4.960   1.058  19.367  1.00  0.00    -0.556 A  
HETATM    6  C08 SZY A 404       5.418   0.935  18.062  1.00  0.00    -0.399 A  
HETATM    7  N07 SZY A 404       6.551   0.333  17.777  1.00  0.00    -0.699 NA 
ENDROOT
BRANCH   2   8
HETATM    8  N04 SZY A 404       7.775  -0.699  21.092  1.00  0.00    -0.327 N  
HETATM    9  C02 SZY A 404       9.020  -0.053  21.471  1.00  0.00    -0.357 C  
HETATM   10  C01 SZY A 404       9.914  -0.671  22.544  1.00  0.00    -0.354 C  
HETATM   11  O03 SZY A 404       9.346   0.960  20.955  1.00  0.00    -0.632 OA 
HETATM   12  H04 SZY A 404       7.496  -1.568  21.548  1.00  0.00     0.000 HD 
ENDBRANCH   2   8
TORSDOF 1
ENDMDL
