MODEL        1
REMARK THIS MODEL IS IDENTICAL TO THE INPUT LIGAND AND NOT FROM DOCKING
REMARK 921   NORMALIZED FREE ENERGY PREDICTED BY IDOCK:   -1.68 KCAL/MOL
REMARK 922        TOTAL FREE ENERGY PREDICTED BY IDOCK:   -3.39 KCAL/MOL
REMARK 923 INTER-LIGAND FREE ENERGY PREDICTED BY IDOCK:   -2.46 KCAL/MOL
REMARK 924 INTRA-LIGAND FREE ENERGY PREDICTED BY IDOCK:   -0.93 KCAL/MOL
REMARK 927      BINDING AFFINITY PREDICTED BY RF-SCORE:    0.00 PKD
ROOT
HETATM    1  C02 FHR A 405     -11.083  11.760  69.359  1.00  0.00    -0.263 C  
HETATM    2  H12 FHR A 405     -10.012  12.934  70.861  1.00  0.00     0.000 HD 
HETATM    3  O01 FHR A 405     -11.835  11.822  68.463  1.00  0.00    -0.518 OA 
HETATM    4  N12 FHR A 405     -10.663  12.984  70.078  1.00  0.00    -0.187 N  
ENDROOT
BRANCH   1   5
HETATM    5  C03 FHR A 405     -10.566  10.386  69.864  1.00  0.00    -0.214 A  
HETATM    6  C08 FHR A 405      -9.753   5.982  70.856  1.00  0.00    -0.239 A  
HETATM    7  N11 FHR A 405     -11.041   9.206  69.469  1.00  0.00    -0.185 NA 
HETATM    8  C07 FHR A 405      -8.832   6.553  71.734  1.00  0.00    -0.150 A  
HETATM    9  C04 FHR A 405      -9.606  10.173  70.839  1.00  0.00    -0.186 A  
HETATM   10  C10 FHR A 405     -10.397   8.199  70.137  1.00  0.00    -0.197 A  
HETATM   11  H11 FHR A 405     -11.775   9.072  68.773  1.00  0.00     0.000 HD 
HETATM   12  C05 FHR A 405      -9.498   8.761  71.002  1.00  0.00    -0.208 A  
HETATM   13  C09 FHR A 405     -10.534   6.792  70.055  1.00  0.00    -0.321 A  
HETATM   14  C06 FHR A 405      -8.698   7.933  71.817  1.00  0.00    -0.206 A  
ENDBRANCH   1   5
BRANCH   4  15
HETATM   15  C13 FHR A 405     -11.193  14.229  69.646  1.00  0.00    -0.206 C  
BRANCH  15  16
HETATM   16  C14 FHR A 405     -10.832  15.342  70.669  1.00  0.00    -0.255 C  
BRANCH  16  17
HETATM   17  C15 FHR A 405     -11.319  14.999  72.140  1.00  0.00    -0.264 C  
HETATM   18  C19 FHR A 405     -13.343  14.569  73.579  1.00  0.00    -0.529 C  
HETATM   19  C20 FHR A 405     -12.843  14.829  72.155  1.00  0.00    -0.434 C  
HETATM   20  C16 FHR A 405     -10.897  16.145  73.063  1.00  0.00    -0.428 C  
HETATM   21  C17 FHR A 405     -11.397  15.926  74.493  1.00  0.00    -0.472 C  
HETATM   22  C18 FHR A 405     -12.912  15.681  74.533  1.00  0.00    -0.418 C  
ENDBRANCH  16  17
ENDBRANCH  15  16
BRANCH  15  23
HETATM   23  C21 FHR A 405     -10.659  14.644  68.282  1.00  0.00    -0.231 C  
HETATM   24  O33 FHR A 405      -9.542  14.434  67.963  1.00  0.00    -0.185 OA 
HETATM   25  H22 FHR A 405     -12.555  15.524  67.776  1.00  0.00     0.000 HD 
HETATM   26  N22 FHR A 405     -11.603  15.362  67.449  1.00  0.00     0.401 N  
BRANCH  26  27
HETATM   27  C23 FHR A 405     -11.179  15.857  66.125  1.00  0.00     1.129 C  
HETATM   28  O32 FHR A 405     -10.988  17.874  64.978  1.00  0.00     0.403 OA 
HETATM   29  C31 FHR A 405     -11.479  17.337  65.911  1.00  0.00     4.322 C  
BRANCH  27  30
HETATM   30  C24 FHR A 405     -11.760  15.009  64.979  1.00  0.00     0.150 C  
BRANCH  30  31
HETATM   31  C25 FHR A 405     -11.129  13.497  65.033  1.00  0.00    -0.352 C  
HETATM   32  C29 FHR A 405     -11.921  12.621  63.940  1.00  0.00    -0.475 C  
HETATM   33  O30 FHR A 405     -13.070  12.652  63.713  1.00  0.00    -0.626 OA 
HETATM   34  N28 FHR A 405     -10.857  11.742  63.249  1.00  0.00    -0.223 NA 
HETATM   35  C27 FHR A 405      -9.751  12.032  63.808  1.00  0.00    -0.416 C  
HETATM   36  C26 FHR A 405      -9.979  13.493  64.667  1.00  0.00    -0.475 C  
ENDBRANCH  30  31
ENDBRANCH  27  30
ENDBRANCH  26  27
ENDBRANCH  15  23
ENDBRANCH   4  15
TORSDOF 8
ENDMDL
