REMARK  6 active torsions:
REMARK  status: ('A' for Active; 'I' for Inactive)
REMARK    1  A    between atoms: C4_2  and  C3_6
REMARK    2  A    between atoms: C3_6  and  C6_7
REMARK    3  A    between atoms: C3_6  and  N_13
REMARK    4  A    between atoms: N_13  and  C11_16
REMARK    5  A    between atoms: C2_14  and  C1_26
REMARK    6  A    between atoms: C14_19  and  C17_22
ROOT
HETATM    1  N1  VEV A 405       7.809   1.669  22.958  1.00  0.00    -0.260 N
HETATM    2  C4  VEV A 405       8.040   1.020  21.824  1.00  0.00     0.223 C
HETATM    3  C5  VEV A 405       8.743   2.645  23.488  1.00  0.00     0.109 C
HETATM    4  H1  VEV A 405       6.950   1.476  23.473  1.00  0.00     0.130 HD
HETATM    5  O1  VEV A 405       8.996   1.249  21.086  1.00  0.00    -0.277 OA
ENDROOT
BRANCH   2   6
HETATM    6  C3  VEV A 405       6.989  -0.046  21.472  1.00  0.00     0.183 C
BRANCH   6   7
HETATM    7  C6  VEV A 405       6.341   0.219  20.123  1.00  0.00    -0.003 A
HETATM    8  N2  VEV A 405       6.568   0.291  17.724  1.00  0.00    -0.263 NA
HETATM    9  C8  VEV A 405       5.492   1.082  17.675  1.00  0.00     0.111 A
HETATM   10  C10 VEV A 405       5.209   1.015  20.029  1.00  0.00     0.008 A
HETATM   11  C7  VEV A 405       6.958  -0.136  18.930  1.00  0.00     0.116 A
HETATM   12  C9  VEV A 405       4.773   1.458  18.796  1.00  0.00     0.020 A
ENDBRANCH   6   7
BRANCH   6  13
HETATM   13  N   VEV A 405       7.473  -1.416  21.784  1.00  0.00    -0.198 N
HETATM   14  C2  VEV A 405       6.665  -2.475  21.480  1.00  0.00     0.208 C
HETATM   15  O   VEV A 405       5.498  -2.320  21.170  1.00  0.00    -0.279 OA
BRANCH  13  16
HETATM   16  C11 VEV A 405       8.732  -1.594  22.445  1.00  0.00     0.026 A
HETATM   17  C15 VEV A 405      10.017  -1.775  24.473  1.00  0.00     0.006 A
HETATM   18  C13 VEV A 405      11.126  -1.809  22.356  1.00  0.00     0.006 A
HETATM   19  C14 VEV A 405      11.203  -1.848  23.747  1.00  0.00    -0.042 A
HETATM   20  C16 VEV A 405       8.794  -1.647  23.836  1.00  0.00     0.020 A
HETATM   21  C12 VEV A 405       9.910  -1.685  21.709  1.00  0.00     0.020 A
BRANCH  19  22
HETATM   22  C17 VEV A 405      12.552  -1.908  24.477  1.00  0.00    -0.013 C
HETATM   23  C20 VEV A 405      12.597  -3.085  25.470  1.00  0.00     0.015 C
HETATM   24  C18 VEV A 405      12.760  -0.603  25.241  1.00  0.00     0.015 C
HETATM   25  C19 VEV A 405      13.729  -2.066  23.512  1.00  0.00     0.015 C
ENDBRANCH  19  22
ENDBRANCH  13  16
BRANCH  14  26
HETATM   26  C1  VEV A 405       7.261  -3.856  21.493  1.00  0.00     0.089 C
HETATM   27  C   VEV A 405       7.123  -4.513  20.141  1.00  0.00     0.013 C
ENDBRANCH  14  26
ENDBRANCH   6  13
ENDBRANCH   2   6
TORSDOF 6
