REMARK  3 active torsions:
REMARK  status: ('A' for Active; 'I' for Inactive)
REMARK    1  A    between atoms: C8_3  and  N_7
REMARK    2  A    between atoms: C_8  and  C1_11
REMARK    3  A    between atoms: C1_11  and  C2_12
ROOT
HETATM    1  N1  GWS A1001       7.534   0.344  17.581  1.00  0.00    -0.262 NA
HETATM    2  C12 GWS A1001       8.096  -0.072  18.686  1.00  0.00     0.130 A
HETATM    3  C8  GWS A1001       7.431   0.116  19.883  1.00  0.00     0.040 A
HETATM    4  C9  GWS A1001       6.197   0.751  19.962  1.00  0.00     0.023 A
HETATM    5  C11 GWS A1001       6.354   0.944  17.579  1.00  0.00     0.111 A
HETATM    6  C10 GWS A1001       5.648   1.168  18.750  1.00  0.00     0.021 A
ENDROOT
BRANCH   3   7
HETATM    7  N   GWS A1001       8.027  -0.321  21.104  1.00  0.00    -0.227 N
HETATM    8  C   GWS A1001       9.318   0.179  21.452  1.00  0.00     0.205 C
HETATM    9  H   GWS A1001       7.541  -0.977  21.715  1.00  0.00     0.136 HD
HETATM   10  O   GWS A1001       9.871   0.915  20.701  1.00  0.00    -0.279 OA
BRANCH   8  11
HETATM   11  C1  GWS A1001       9.928  -0.275  22.773  1.00  0.00     0.096 C
BRANCH  11  12
HETATM   12  C2  GWS A1001      11.452  -0.275  22.712  1.00  0.00    -0.003 C
HETATM   13  C7  GWS A1001      11.947  -1.343  21.740  1.00  0.00     0.004 C
HETATM   14  C6  GWS A1001      13.457  -1.525  21.803  1.00  0.00     0.000 C
HETATM   15  C5  GWS A1001      13.976  -1.682  23.221  1.00  0.00     0.000 C
HETATM   16  C4  GWS A1001      13.488  -0.514  24.062  1.00  0.00     0.000 C
HETATM   17  C3  GWS A1001      11.973  -0.534  24.118  1.00  0.00     0.004 C
ENDBRANCH  11  12
ENDBRANCH   8  11
ENDBRANCH   3   7
TORSDOF 3
