REMARK  2 active torsions:
REMARK  status: ('A' for Active; 'I' for Inactive)
REMARK    1  A    between atoms: N_7  and  C4_10
REMARK    2  A    between atoms: C1_13  and  O_16
ROOT
HETATM    1  N1  T8P A 404       6.688  -4.261  21.292  1.00  0.00    -0.242 N
HETATM    2  C8  T8P A 404       6.301  -5.393  22.119  1.00  0.00     0.108 C
HETATM    3  C11 T8P A 404       6.336  -4.157  19.990  1.00  0.00     0.200 C
HETATM    4  C7  T8P A 404       5.260  -4.951  23.123  1.00  0.00     0.106 C
HETATM    5  C12 T8P A 404       6.888  -3.010  19.180  1.00  0.00     0.105 C
HETATM    6  O1  T8P A 404       5.589  -4.965  19.454  1.00  0.00    -0.280 OA
HETATM    7  N   T8P A 404       5.533  -3.648  23.757  1.00  0.00    -0.272 NA
HETATM    8  C10 T8P A 404       6.451  -2.683  23.119  1.00  0.00     0.106 C
HETATM    9  C9  T8P A 404       7.400  -3.291  22.111  1.00  0.00     0.108 C
ENDROOT
BRANCH   7  10
HETATM   10  C4  T8P A 404       4.839  -3.294  24.903  1.00  0.00     0.018 A
HETATM   11  C3  T8P A 404       3.604  -3.879  25.187  1.00  0.00     0.022 A
HETATM   12  C2  T8P A 404       2.888  -3.530  26.316  1.00  0.00     0.034 A
HETATM   13  C1  T8P A 404       3.389  -2.571  27.186  1.00  0.00     0.076 A
HETATM   14  C6  T8P A 404       4.611  -1.971  26.917  1.00  0.00     0.034 A
HETATM   15  C5  T8P A 404       5.324  -2.326  25.786  1.00  0.00     0.022 A
BRANCH  13  16
HETATM   16  O   T8P A 404       2.703  -2.203  28.313  1.00  0.00    -0.348 OA
HETATM   17  C   T8P A 404       1.283  -2.331  28.307  1.00  0.00     0.202 C
ENDBRANCH  13  16
ENDBRANCH   7  10
TORSDOF 2
