REMARK  1 active torsions:
REMARK  status: ('A' for Active; 'I' for Inactive)
REMARK    1  A    between atoms: C6_3  and  C7_12
ROOT
HETATM    1  N1  U1G A 404       7.940  -2.820  23.778  1.00  0.00    -0.236 N
HETATM    2  C4  U1G A 404       8.706  -2.172  22.711  1.00  0.00     0.109 C
HETATM    3  C6  U1G A 404       7.389  -2.123  24.804  1.00  0.00     0.258 C
HETATM    4  C5  U1G A 404       7.802  -1.818  21.545  1.00  0.00     0.108 C
HETATM    5  C3  U1G A 404       7.303  -4.041  23.284  1.00  0.00     0.109 C
HETATM    6  O1  U1G A 404       6.188  -2.195  25.054  1.00  0.00    -0.272 OA
HETATM    7  N   U1G A 404       6.986  -2.955  21.094  1.00  0.00    -0.242 N
HETATM    8  O   U1G A 404       5.909  -4.156  19.544  1.00  0.00    -0.280 OA
HETATM    9  C1  U1G A 404       6.734  -3.289  19.810  1.00  0.00     0.200 C
HETATM   10  C2  U1G A 404       6.329  -3.687  22.182  1.00  0.00     0.108 C
HETATM   11  C   U1G A 404       7.460  -2.568  18.684  1.00  0.00     0.105 C
ENDROOT
BRANCH   3  12
HETATM   12  C7  U1G A 404       8.233  -1.325  25.661  1.00  0.00     0.141 A
HETATM   13  C9  U1G A 404       9.552  -0.440  27.219  1.00  0.00     0.028 A
HETATM   14  O2  U1G A 404       8.479  -0.027  25.299  1.00  0.00    -0.312 OA
HETATM   15  C10 U1G A 404       9.290   0.505  26.254  1.00  0.00     0.136 A
HETATM   16  C8  U1G A 404       8.863  -1.610  26.822  1.00  0.00     0.040 A
ENDBRANCH   3  12
TORSDOF 1
