REMARK 11 active torsions:
REMARK  status: ('A' for Active; 'I' for Inactive)
REMARK    1  A    between atoms: C28_1  and  N29_3
REMARK    2  A    between atoms: C28_1  and  N27_9
REMARK    3  A    between atoms: N27_9  and  C22_11
REMARK    4  A    between atoms: C22_11  and  C21_12
REMARK    5  A    between atoms: C22_11  and  C23_40
REMARK    6  A    between atoms: C13_19  and  C12_22
REMARK    7  A    between atoms: N11_25  and  C05_26
REMARK    8  A    between atoms: C05_26  and  C03_27
REMARK    9  A    between atoms: C05_26  and  C06_35
REMARK   10  A    between atoms: C06_35  and  C07_36
REMARK   11  A    between atoms: C03_27  and  C02_30
ROOT
HETATM    1  C28 U5G A 401     -19.944   7.264  33.342  1.00  0.00     0.274 C
HETATM    2  O34 U5G A 401     -21.117   7.437  33.672  1.00  0.00    -0.261 OA
ENDROOT
BRANCH   1   3
HETATM    3  N29 U5G A 401     -19.014   7.089  34.192  1.00  0.00    -0.240 N
HETATM    4  C32 U5G A 401     -17.846   6.754  36.291  1.00  0.00     0.027 C
HETATM    5  C31 U5G A 401     -20.164   6.009  36.112  1.00  0.00     0.027 C
HETATM    6  C33 U5G A 401     -19.619   8.444  36.183  1.00  0.00     0.027 C
HETATM    7  H29 U5G A 401     -18.072   6.942  33.829  1.00  0.00     0.132 HD
HETATM    8  C30 U5G A 401     -19.180   7.080  35.652  1.00  0.00     0.019 C
ENDBRANCH   1   3
BRANCH   1   9
HETATM    9  N27 U5G A 401     -19.597   7.281  32.121  1.00  0.00    -0.233 N
HETATM   10  H27 U5G A 401     -18.607   7.198  31.890  1.00  0.00     0.132 HD
BRANCH   9  11
HETATM   11  C22 U5G A 401     -20.566   7.415  31.035  1.00  0.00     0.151 C
BRANCH  11  12
HETATM   12  C21 U5G A 401     -20.728   6.094  30.325  1.00  0.00     0.226 C
HETATM   13  C17 U5G A 401     -22.600   3.426  32.614  1.00  0.00     0.016 C
HETATM   14  N20 U5G A 401     -21.945   5.516  30.371  1.00  0.00    -0.208 N
HETATM   15  C18 U5G A 401     -24.975   2.617  31.966  1.00  0.00     0.016 C
HETATM   16  C19 U5G A 401     -23.127   5.967  31.116  1.00  0.00     0.107 C
HETATM   17  C16 U5G A 401     -23.770   3.485  31.626  1.00  0.00    -0.004 C
HETATM   18  O35 U5G A 401     -19.750   5.580  29.794  1.00  0.00    -0.277 OA
HETATM   19  C13 U5G A 401     -22.228   4.282  29.632  1.00  0.00     0.084 C
HETATM   20  C14 U5G A 401     -23.573   3.748  30.129  1.00  0.00    -0.035 C
HETATM   21  C15 U5G A 401     -24.161   4.840  31.016  1.00  0.00     0.042 C
BRANCH  19  22
HETATM   22  C12 U5G A 401     -22.373   4.654  28.191  1.00  0.00     0.243 C
HETATM   23  H11 U5G A 401     -21.013   3.303  27.729  1.00  0.00     0.131 HD
HETATM   24  O36 U5G A 401     -23.171   5.526  27.863  1.00  0.00    -0.273 OA
HETATM   25  N11 U5G A 401     -21.625   4.041  27.381  1.00  0.00    -0.247 N
BRANCH  25  26
HETATM   26  C05 U5G A 401     -21.614   4.363  25.956  1.00  0.00     0.099 C
BRANCH  26  27
HETATM   27  C03 U5G A 401     -22.005   3.141  25.101  1.00  0.00     0.213 C
HETATM   28  H04 U5G A 401     -23.437   1.756  25.073  1.00  0.00     0.210 HD
HETATM   29  O04 U5G A 401     -23.196   2.509  25.600  1.00  0.00    -0.381 OA
BRANCH  27  30
HETATM   30  C02 U5G A 401     -22.283   3.576  23.677  1.00  0.00     0.228 C
HETATM   31 1H37 U5G A 401     -23.634   4.277  22.377  1.00  0.00     0.127 HD
HETATM   32  O01 U5G A 401     -21.357   3.525  22.881  1.00  0.00    -0.277 OA
HETATM   33 2H37 U5G A 401     -24.194   4.017  24.029  1.00  0.00     0.127 HD
HETATM   34  N37 U5G A 401     -23.447   3.984  23.336  1.00  0.00    -0.270 N
ENDBRANCH  27  30
ENDBRANCH  26  27
BRANCH  26  35
HETATM   35  C06 U5G A 401     -20.162   4.827  25.814  1.00  0.00     0.025 C
BRANCH  35  36
HETATM   36  C07 U5G A 401     -20.020   6.165  25.100  1.00  0.00    -0.009 C
HETATM   37  C10 U5G A 401     -18.805   6.947  25.586  1.00  0.00     0.003 C
HETATM   38  C08 U5G A 401     -20.934   7.282  25.616  1.00  0.00     0.003 C
HETATM   39  C09 U5G A 401     -19.702   8.125  25.923  1.00  0.00     0.001 C
ENDBRANCH  35  36
ENDBRANCH  26  35
ENDBRANCH  25  26
ENDBRANCH  19  22
ENDBRANCH  11  12
BRANCH  11  40
HETATM   40  C23 U5G A 401     -20.311   8.594  30.095  1.00  0.00    -0.014 C
HETATM   41  C26 U5G A 401     -21.444   8.631  29.059  1.00  0.00     0.012 C
HETATM   42  C25 U5G A 401     -20.364   9.878  30.922  1.00  0.00     0.012 C
HETATM   43  C24 U5G A 401     -18.923   8.519  29.442  1.00  0.00     0.012 C
ENDBRANCH  11  40
ENDBRANCH   9  11
ENDBRANCH   1   9
TORSDOF 11
