REMARK  1 active torsions:
REMARK  status: ('A' for Active; 'I' for Inactive)
REMARK    1  A    between atoms: C3_7  and  S_8
ROOT
HETATM    1  C4  T5G A 404      12.777   3.446  23.024  1.00  0.00     0.124 A
HETATM    2  C5  T5G A 404      13.336   2.198  22.754  1.00  0.00     0.033 A
HETATM    3  C   T5G A 404      12.639   1.050  23.117  1.00  0.00     0.020 A
HETATM    4 BR   T5G A 404      13.437  -0.702  22.657  1.00  0.00    -0.050 Br
HETATM    5  C1  T5G A 404      11.401   1.119  23.762  1.00  0.00     0.033 A
HETATM    6  C2  T5G A 404      10.861   2.392  24.027  1.00  0.00     0.124 A
HETATM    7  C3  T5G A 404      11.533   3.579  23.659  1.00  0.00    -0.588 A
ENDROOT
BRANCH   7   8
HETATM    8  S   T5G A 404      10.874   5.103  23.951  1.00  0.00     2.574 S
HETATM    9  N   T5G A 404       9.554   5.104  22.977  1.00  0.00    -0.931 N
HETATM   10  O1  T5G A 404      11.762   6.113  23.479  1.00  0.00    -0.924 OA
HETATM   11  O   T5G A 404      10.402   5.162  25.279  1.00  0.00    -0.924 OA
HETATM   12  H1  T5G A 404       9.895   5.061  22.017  1.00  0.00     0.255 HD
HETATM   13  H2  T5G A 404       8.579   5.140  23.275  1.00  0.00     0.255 HD
ENDBRANCH   7   8
TORSDOF 1
