MODEL        1
REMARK THIS MODEL IS IDENTICAL TO THE INPUT LIGAND AND NOT FROM DOCKING
REMARK 921   NORMALIZED FREE ENERGY PREDICTED BY IDOCK:    2.12 KCAL/MOL
REMARK 922        TOTAL FREE ENERGY PREDICTED BY IDOCK:    2.97 KCAL/MOL
REMARK 923 INTER-LIGAND FREE ENERGY PREDICTED BY IDOCK:    2.37 KCAL/MOL
REMARK 924 INTRA-LIGAND FREE ENERGY PREDICTED BY IDOCK:    0.60 KCAL/MOL
REMARK 927      BINDING AFFINITY PREDICTED BY RF-SCORE:    0.00 PKD
ROOT
HETATM    1  C13 T7J A 404       4.350  -5.403  24.698  1.00  0.00    -0.161 C  
HETATM    2  C12 T7J A 404       4.976  -4.558  23.888  1.00  0.00     0.258 C  
HETATM    3  C11 T7J A 404       5.170  -5.053  22.460  1.00  0.00    -0.308 C  
HETATM    4  C17 T7J A 404       5.001  -6.578  22.480  1.00  0.00     0.337 C  
HETATM    5  O15 T7J A 404       2.600  -6.974  23.527  1.00  0.00    -0.209 OA 
HETATM    6  O16 T7J A 404       4.516  -8.011  24.671  1.00  0.00    -0.526 OA 
HETATM    7  S14 T7J A 404       3.987  -6.915  23.905  1.00  0.00    -0.071 S  
ENDROOT
BRANCH   3   8
HETATM    8  N06 T7J A 404       6.488  -4.659  21.979  1.00  0.00    -0.295 N  
HETATM    9  C09 T7J A 404       8.005  -3.631  20.357  1.00  0.00     4.113 C  
HETATM   10  C07 T7J A 404       6.714  -4.353  20.670  1.00  0.00     0.882 C  
HETATM   11  O08 T7J A 404       5.908  -4.634  19.795  1.00  0.00    -0.157 OA 
BRANCH   8  12
HETATM   12  C05 T7J A 404       7.561  -4.603  22.923  1.00  0.00    -0.318 A  
HETATM   13  C04 T7J A 404       7.913  -5.748  23.632  1.00  0.00    -0.390 A  
HETATM   14  C03 T7J A 404       8.937  -5.690  24.552  1.00  0.00    -0.360 A  
HETATM   15  C02 T7J A 404       9.626  -4.518  24.786  1.00  0.00    -0.391 A  
HETATM   16  C01 T7J A 404      10.732  -4.492  25.777  1.00  0.00     0.538 C  
HETATM   17  C19 T7J A 404       9.272  -3.384  24.072  1.00  0.00    -0.291 A  
HETATM   18  C18 T7J A 404       8.240  -3.408  23.155  1.00  0.00    -0.281 A  
ENDBRANCH   8  12
ENDBRANCH   3   8
TORSDOF 2
ENDMDL
