MODEL        1
REMARK THIS MODEL IS IDENTICAL TO THE INPUT LIGAND AND NOT FROM DOCKING
REMARK 921   NORMALIZED FREE ENERGY PREDICTED BY IDOCK:   -2.52 KCAL/MOL
REMARK 922        TOTAL FREE ENERGY PREDICTED BY IDOCK:   -7.05 KCAL/MOL
REMARK 923 INTER-LIGAND FREE ENERGY PREDICTED BY IDOCK:   -4.59 KCAL/MOL
REMARK 924 INTRA-LIGAND FREE ENERGY PREDICTED BY IDOCK:   -2.46 KCAL/MOL
REMARK 927      BINDING AFFINITY PREDICTED BY RF-SCORE:    0.00 PKD
ROOT
HETATM    1  CBN SV6 A 402      11.932   8.390  26.525  1.00  0.00    -0.283 A  
HETATM    2  NAF SV6 A 402      12.222   7.467  27.479  1.00  0.00    -0.207 NA 
HETATM    3  NAG SV6 A 402      12.265  10.221  28.048  1.00  0.00    -0.177 NA 
HETATM    4  CBO SV6 A 402      12.566   7.928  28.708  1.00  0.00    -0.217 A  
HETATM    5  CBQ SV6 A 402      11.925   9.774  26.815  1.00  0.00    -0.233 A  
HETATM    6  CBP SV6 A 402      12.584   9.308  28.993  1.00  0.00    -0.188 A  
ENDROOT
BRANCH   1   7
HETATM    7  CBB SV6 A 402      11.522   7.883  25.175  1.00  0.00    -0.286 C  
HETATM    8  HAD SV6 A 402      11.531   5.929  25.854  1.00  0.00     0.000 HD 
HETATM    9  NAD SV6 A 402      11.332   6.531  25.055  1.00  0.00    -0.251 N  
HETATM   10  OBW SV6 A 402      11.315   8.649  24.239  1.00  0.00     0.187 OA 
BRANCH   9  11
HETATM   11  CAY SV6 A 402      10.852   5.930  23.813  1.00  0.00    -0.294 C  
BRANCH  11  12
HETATM   12  CBH SV6 A 402      11.965   5.310  22.917  1.00  0.00    -0.360 C  
HETATM   13  CBM SV6 A 402      12.820   6.396  22.253  1.00  0.00    -0.492 C  
HETATM   14  CBI SV6 A 402      12.860   4.300  23.656  1.00  0.00    -0.419 C  
HETATM   15  CBL SV6 A 402      13.861   5.801  21.322  1.00  0.00    -0.662 C  
HETATM   16  CBK SV6 A 402      14.785   4.894  22.115  1.00  0.00    -0.435 C  
HETATM   17  CBJ SV6 A 402      13.981   3.769  22.771  1.00  0.00    -0.504 C  
ENDBRANCH  11  12
BRANCH  11  18
HETATM   18  CAX SV6 A 402       9.996   4.763  24.352  1.00  0.00    -0.256 C  
HETATM   19  HAC SV6 A 402       8.915   4.596  22.568  1.00  0.00     0.000 HD 
HETATM   20  OBU SV6 A 402      10.154   4.308  25.516  1.00  0.00    -0.388 OA 
HETATM   21  NAC SV6 A 402       9.063   4.214  23.502  1.00  0.00     0.093 N  
BRANCH  21  22
HETATM   22  CAW SV6 A 402       8.302   3.086  23.968  1.00  0.00    -0.217 C  
BRANCH  22  23
HETATM   23  CAV SV6 A 402       8.691   1.816  23.145  1.00  0.00    -0.266 C  
HETATM   24  CBF SV6 A 402      12.700   0.035  23.772  1.00  0.00    -0.521 C  
HETATM   25  CD1 SV6 A 402       9.542   0.578  25.183  1.00  0.00    -0.254 C  
HETATM   26  CBE SV6 A 402      12.042  -1.276  23.340  1.00  0.00    -0.415 C  
HETATM   27  OBT SV6 A 402       8.530   1.781  21.934  1.00  0.00    -0.346 OA 
HETATM   28  N   SV6 A 402       9.266   0.705  23.749  1.00  0.00    -0.221 N  
HETATM   29  CA  SV6 A 402       9.633  -0.534  23.056  1.00  0.00    -0.332 C  
HETATM   30  CD2 SV6 A 402      12.091   0.367  25.137  1.00  0.00    -0.379 C  
HETATM   31  CB  SV6 A 402      10.639  -1.253  23.972  1.00  0.00    -0.359 C  
HETATM   32  CG  SV6 A 402      10.739  -0.360  25.234  1.00  0.00    -0.157 C  
BRANCH  29  33
HETATM   33  C   SV6 A 402       8.321  -1.332  22.991  1.00  0.00    -0.313 C  
HETATM   34  HAE SV6 A 402       8.325  -1.514  20.896  1.00  0.00     0.000 HD 
HETATM   35  NAE SV6 A 402       7.823  -1.712  21.762  1.00  0.00     0.295 N  
HETATM   36  O   SV6 A 402       7.656  -1.567  24.003  1.00  0.00    -0.187 OA 
BRANCH  35  37
HETATM   37  CAH SV6 A 402       6.537  -2.415  21.762  1.00  0.00     0.839 C  
BRANCH  37  38
HETATM   38  CAJ SV6 A 402       5.415  -1.644  21.035  1.00  0.00     0.119 C  
BRANCH  38  39
HETATM   39  CAK SV6 A 402       5.513  -0.127  21.119  1.00  0.00    -0.292 C  
HETATM   40  CAL SV6 A 402       5.300   0.468  19.734  1.00  0.00    -0.365 C  
ENDBRANCH  38  39
ENDBRANCH  37  38
BRANCH  37  41
HETATM   41  CAI SV6 A 402       6.700  -3.810  21.110  1.00  0.00     4.132 C  
HETATM   42  OBR SV6 A 402       7.604  -4.528  21.862  1.00  0.00     1.068 OA 
HETATM   43  HBR SV6 A 402       7.704  -5.384  21.462  1.00  0.00     0.000 HD 
BRANCH  41  44
HETATM   44  CAM SV6 A 402       5.372  -4.594  21.134  1.00  0.00     1.052 C  
HETATM   45  HAA SV6 A 402       5.815  -5.288  23.028  1.00  0.00     0.000 HD 
HETATM   46  NAA SV6 A 402       5.111  -5.312  22.290  1.00  0.00    -0.339 N  
HETATM   47  OBS SV6 A 402       4.574  -4.518  20.194  1.00  0.00    -0.205 OA 
BRANCH  46  48
HETATM   48  CAN SV6 A 402       3.933  -6.082  22.528  1.00  0.00    -0.228 C  
HETATM   49  CAP SV6 A 402       2.708  -5.395  23.122  1.00  0.00    -0.279 C  
HETATM   50  CAO SV6 A 402       3.520  -6.347  23.970  1.00  0.00    -0.298 C  
ENDBRANCH  46  48
ENDBRANCH  41  44
ENDBRANCH  37  41
ENDBRANCH  35  37
ENDBRANCH  29  33
ENDBRANCH  22  23
BRANCH  22  51
HETATM   51  CAZ SV6 A 402       6.751   3.378  23.902  1.00  0.00    -0.152 C  
HETATM   52  CBC SV6 A 402       5.983   2.157  24.406  1.00  0.00    -0.119 C  
HETATM   53  CBD SV6 A 402       6.458   4.514  24.905  1.00  0.00    -0.145 C  
HETATM   54  CBA SV6 A 402       6.244   3.753  22.502  1.00  0.00    -0.336 C  
ENDBRANCH  22  51
ENDBRANCH  21  22
ENDBRANCH  11  18
ENDBRANCH   9  11
ENDBRANCH   1   7
TORSDOF 14
ENDMDL
