MODEL        1
REMARK THIS MODEL IS IDENTICAL TO THE INPUT LIGAND AND NOT FROM DOCKING
REMARK 921   NORMALIZED FREE ENERGY PREDICTED BY IDOCK:   -6.01 KCAL/MOL
REMARK 922        TOTAL FREE ENERGY PREDICTED BY IDOCK:   -7.27 KCAL/MOL
REMARK 923 INTER-LIGAND FREE ENERGY PREDICTED BY IDOCK:   -7.07 KCAL/MOL
REMARK 924 INTRA-LIGAND FREE ENERGY PREDICTED BY IDOCK:   -0.20 KCAL/MOL
REMARK 927      BINDING AFFINITY PREDICTED BY RF-SCORE:    0.00 PKD
ROOT
HETATM    1  N1  UH1 A1001       7.438  -0.403  21.059  1.00  0.00    -0.306 N  
HETATM    2  O   UH1 A1001       9.197   1.039  21.060  1.00  0.00    -0.646 OA 
HETATM    3  C   UH1 A1001       8.592   0.089  21.556  1.00  0.00    -0.291 C  
HETATM    4  H1  UH1 A1001       7.057  -1.229  21.520  1.00  0.00     0.000 HD 
ENDROOT
BRANCH   1   5
HETATM    5  C9  UH1 A1001       6.706   0.108  19.969  1.00  0.00    -0.366 A  
HETATM    6  C10 UH1 A1001       5.541   0.839  20.168  1.00  0.00    -0.566 A  
HETATM    7  C12 UH1 A1001       5.475   1.257  17.828  1.00  0.00    -0.353 A  
HETATM    8  C13 UH1 A1001       7.182  -0.015  18.664  1.00  0.00    -0.386 A  
HETATM    9  C11 UH1 A1001       4.915   1.427  19.083  1.00  0.00    -0.570 A  
HETATM   10  N2  UH1 A1001       6.590   0.551  17.606  1.00  0.00    -0.487 NA 
ENDBRANCH   1   5
BRANCH   3  11
HETATM   11  C1  UH1 A1001       9.082  -0.618  22.805  1.00  0.00    -0.240 C  
BRANCH  11  12
HETATM   12  C2  UH1 A1001      10.574  -0.474  22.991  1.00  0.00    -0.274 A  
HETATM   13  C6  UH1 A1001      12.827  -0.896  22.231  1.00  0.00    -0.461 A  
HETATM   14  C5  UH1 A1001      13.332  -0.158  23.299  1.00  0.00    -0.553 A  
HETATM   15  C8  UH1 A1001      11.451  -1.060  22.083  1.00  0.00    -0.481 A  
HETATM   16  C7  UH1 A1001      13.721  -1.457  21.250  1.00  0.00    -0.373 C  
HETATM   17  N   UH1 A1001      14.455  -1.896  20.493  1.00  0.00     0.212 NA 
HETATM   18  C4  UH1 A1001      12.460   0.421  24.205  1.00  0.00    -0.609 A  
HETATM   19  C3  UH1 A1001      11.092   0.264  24.050  1.00  0.00    -0.319 A  
ENDBRANCH  11  12
ENDBRANCH   3  11
TORSDOF 3
ENDMDL
