REMARK  3 active torsions:
REMARK  status: ('A' for Active; 'I' for Inactive)
REMARK    1  A    between atoms: C05_2  and  C03_7
REMARK    2  A    between atoms: C03_7  and  O02_9
REMARK    3  A    between atoms: C08_3  and  S11_11
ROOT
HETATM    1  C10 RZG A 404      13.459   2.162  22.819  1.00  0.00     0.032 A
HETATM    2  C05 RZG A 404      12.914   1.029  23.403  1.00  0.00     0.049 A
HETATM    3  C08 RZG A 404      11.595   3.454  23.588  1.00  0.00    -0.588 A
HETATM    4  C06 RZG A 404      11.707   1.106  24.084  1.00  0.00     0.032 A
HETATM    5  C07 RZG A 404      11.044   2.322  24.179  1.00  0.00     0.123 A
HETATM    6  C09 RZG A 404      12.802   3.374  22.907  1.00  0.00     0.123 A
ENDROOT
BRANCH   2   7
HETATM    7  C03 RZG A 404      13.659  -0.300  23.302  1.00  0.00     0.294 C
HETATM    8  O04 RZG A 404      14.339  -0.516  22.361  1.00  0.00    -0.259 OA
BRANCH   7   9
HETATM    9  O02 RZG A 404      13.548  -1.238  24.338  1.00  0.00    -0.315 OA
HETATM   10  C01 RZG A 404      14.020  -2.537  24.074  1.00  0.00     0.205 C
ENDBRANCH   7   9
ENDBRANCH   2   7
BRANCH   3  11
HETATM   11  S11 RZG A 404      10.748   5.049  23.705  1.00  0.00     2.574 S
HETATM   12  O13 RZG A 404      10.485   5.379  25.107  1.00  0.00    -0.924 OA
HETATM   13  O12 RZG A 404      11.626   6.147  23.287  1.00  0.00    -0.924 OA
HETATM   14  N14 RZG A 404       9.311   5.041  22.782  1.00  0.00    -0.931 N
HETATM   15 1H14 RZG A 404       8.834   5.940  22.848  1.00  0.00     0.255 HD
HETATM   16 2H14 RZG A 404       8.976   4.245  22.239  1.00  0.00     0.255 HD
ENDBRANCH   3  11
TORSDOF 3
