REMARK 13 active torsions:
REMARK  status: ('A' for Active; 'I' for Inactive)
REMARK    1  A    between atoms: C4_4  and  C7_7
REMARK    2  A    between atoms: C7_7  and  O8_8
REMARK    3  A    between atoms: O8_8  and  C9_9
REMARK    4  A    between atoms: N10_11  and  C11_13
REMARK    5  A    between atoms: C11_13  and  C12_17
REMARK    6  A    between atoms: N13_19  and  C14_21
REMARK    7  A    between atoms: C14_21  and  C15_22
REMARK    8  A    between atoms: C14_21  and  C34_38
REMARK    9  A    between atoms: C34_38  and  C8_39
REMARK   10  A    between atoms: N16_24  and  C17_26
REMARK   11  A    between atoms: C17_26  and  C25_27
REMARK   12  A    between atoms: C17_26  and  C19_30
REMARK   13  A    between atoms: C19_30  and  C20_31
ROOT
HETATM    1  C1  VHJ A 401      44.958  10.059 -17.414  1.00  0.00     0.000 A
HETATM    2  C6  VHJ A 401      45.311   8.835 -17.969  1.00  0.00     0.000 A
HETATM    3  C5  VHJ A 401      44.320   7.925 -18.335  1.00  0.00     0.006 A
HETATM    4  C4  VHJ A 401      42.972   8.226 -18.143  1.00  0.00    -0.021 A
HETATM    5  C2  VHJ A 401      43.615  10.363 -17.217  1.00  0.00     0.000 A
HETATM    6  C3  VHJ A 401      42.631   9.450 -17.588  1.00  0.00     0.006 A
ENDROOT
BRANCH   4   7
HETATM    7  C7  VHJ A 401      41.881   7.248 -18.542  1.00  0.00     0.207 C
BRANCH   7   8
HETATM    8  O8  VHJ A 401      41.371   6.528 -17.419  1.00  0.00    -0.298 OA
BRANCH   8   9
HETATM    9  C9  VHJ A 401      42.270   5.769 -16.558  1.00  0.00     0.339 C
HETATM   10  O29 VHJ A 401      43.338   5.369 -16.998  1.00  0.00    -0.245 OA
HETATM   11  N10 VHJ A 401      41.879   5.521 -15.314  1.00  0.00    -0.222 N
HETATM   12  H10 VHJ A 401      41.045   5.979 -14.947  1.00  0.00     0.133 HD
BRANCH  11  13
HETATM   13  C11 VHJ A 401      42.623   4.609 -14.473  1.00  0.00     0.148 C
HETATM   14  C32 VHJ A 401      43.689   4.425 -12.210  1.00  0.00     0.009 C
HETATM   15  C30 VHJ A 401      42.824   5.281 -13.128  1.00  0.00     0.009 C
HETATM   16  C31 VHJ A 401      43.386   6.676 -13.362  1.00  0.00     0.009 C
BRANCH  13  17
HETATM   17  C12 VHJ A 401      41.902   3.303 -14.298  1.00  0.00     0.219 C
HETATM   18  O33 VHJ A 401      40.805   3.261 -13.761  1.00  0.00    -0.278 OA
HETATM   19  N13 VHJ A 401      42.538   2.237 -14.782  1.00  0.00    -0.245 N
HETATM   20  H13 VHJ A 401      43.369   2.394 -15.352  1.00  0.00     0.131 HD
BRANCH  19  21
HETATM   21  C14 VHJ A 401      42.121   0.866 -14.548  1.00  0.00     0.148 C
BRANCH  21  22
HETATM   22  C15 VHJ A 401      42.116   0.522 -13.091  1.00  0.00     0.219 C
HETATM   23  H16 VHJ A 401      40.087   0.370 -13.049  1.00  0.00     0.131 HD
HETATM   24  N16 VHJ A 401      40.955   0.187 -12.546  1.00  0.00    -0.251 N
HETATM   25  O38 VHJ A 401      43.160   0.540 -12.455  1.00  0.00    -0.278 OA
BRANCH  24  26
HETATM   26  C17 VHJ A 401      40.913  -0.439 -11.238  1.00  0.00     0.091 C
BRANCH  26  27
HETATM   27  C25 VHJ A 401      40.538  -1.920 -11.371  1.00  0.00     0.175 C
HETATM   28  O1  VHJ A 401      40.660  -2.627 -10.139  1.00  0.00    -0.393 OA
HETATM   29  H1  VHJ A 401      40.428  -3.544 -10.221  1.00  0.00     0.209 HD
ENDBRANCH  26  27
BRANCH  26  30
HETATM   30  C19 VHJ A 401      39.925   0.367 -10.401  1.00  0.00     0.061 C
BRANCH  30  31
HETATM   31  C20 VHJ A 401      40.313   1.838 -10.435  1.00  0.00     0.014 C
HETATM   32  C21 VHJ A 401      41.408   2.180  -9.430  1.00  0.00     0.020 C
HETATM   33  C22 VHJ A 401      40.855   3.308  -8.556  1.00  0.00     0.060 C
HETATM   34  N23 VHJ A 401      39.486   3.496  -8.999  1.00  0.00    -0.231 N
HETATM   35  H23 VHJ A 401      38.850   4.183  -8.595  1.00  0.00     0.136 HD
HETATM   36  C24 VHJ A 401      39.151   2.671  -9.992  1.00  0.00     0.231 C
HETATM   37  O26 VHJ A 401      38.053   2.566 -10.511  1.00  0.00    -0.274 OA
ENDBRANCH  30  31
ENDBRANCH  26  30
ENDBRANCH  24  26
ENDBRANCH  21  22
BRANCH  21  38
HETATM   38  C34 VHJ A 401      43.128  -0.095 -15.163  1.00  0.00     0.063 C
BRANCH  38  39
HETATM   39  C8  VHJ A 401      43.072  -0.148 -16.670  1.00  0.00    -0.045 A
HETATM   40  C10 VHJ A 401      44.030  -0.917 -17.327  1.00  0.00     0.004 A
HETATM   41  C16 VHJ A 401      43.083  -0.332 -19.425  1.00  0.00     0.000 A
HETATM   42  C23 VHJ A 401      42.101   0.538 -17.390  1.00  0.00     0.004 A
HETATM   43  C18 VHJ A 401      42.116   0.442 -18.778  1.00  0.00     0.000 A
HETATM   44  C13 VHJ A 401      44.052  -1.020 -18.710  1.00  0.00     0.000 A
ENDBRANCH  38  39
ENDBRANCH  21  38
ENDBRANCH  19  21
ENDBRANCH  13  17
ENDBRANCH  11  13
ENDBRANCH   8   9
ENDBRANCH   7   8
ENDBRANCH   4   7
TORSDOF 13
