REMARK  3 active torsions:
REMARK  status: ('A' for Active; 'I' for Inactive)
REMARK    1  A    between atoms: N1_1  and  C8_5
REMARK    2  A    between atoms: C_2  and  C1_13
REMARK    3  A    between atoms: C11_10  and  O2_11
ROOT
HETATM    1  N1  UPD A1001       6.726  -0.898  26.150  1.00  0.00    -0.227 N
HETATM    2  C   UPD A1001       5.966  -1.459  25.190  1.00  0.00     0.208 C
HETATM    3  O   UPD A1001       4.742  -1.378  25.154  1.00  0.00    -0.279 OA
HETATM    4  H1  UPD A1001       7.730  -1.070  26.090  1.00  0.00     0.136 HD
ENDROOT
BRANCH   1   5
HETATM    5  C8  UPD A1001       6.291  -0.099  27.230  1.00  0.00     0.040 A
HETATM    6  C9  UPD A1001       5.493  -0.604  28.247  1.00  0.00     0.025 A
HETATM    7  C13 UPD A1001       6.756   1.206  27.364  1.00  0.00     0.133 A
HETATM    8  N2  UPD A1001       6.519   1.981  28.430  1.00  0.00    -0.230 NA
HETATM    9  C10 UPD A1001       5.231   0.166  29.365  1.00  0.00     0.055 A
HETATM   10  C11 UPD A1001       5.789   1.451  29.406  1.00  0.00     0.168 A
BRANCH  10  11
HETATM   11  O2  UPD A1001       5.574   2.130  30.553  1.00  0.00    -0.331 OA
HETATM   12  C12 UPD A1001       6.117   3.449  30.671  1.00  0.00     0.203 C
ENDBRANCH  10  11
ENDBRANCH   1   5
BRANCH   2  13
HETATM   13  C1  UPD A1001       6.745  -2.200  24.140  1.00  0.00     0.074 C
HETATM   14  C7  UPD A1001       7.025  -1.302  22.926  1.00  0.00     0.028 C
HETATM   15  C5  UPD A1001       7.041  -2.705  19.110  1.00  0.00     0.105 C
HETATM   16  N   UPD A1001       7.071  -3.310  21.478  1.00  0.00    -0.245 N
HETATM   17  C4  UPD A1001       6.653  -3.641  20.238  1.00  0.00     0.200 C
HETATM   18  C6  UPD A1001       7.790  -2.084  21.852  1.00  0.00     0.093 C
HETATM   19  C2  UPD A1001       6.007  -3.471  23.697  1.00  0.00     0.028 C
HETATM   20  C3  UPD A1001       6.820  -4.192  22.625  1.00  0.00     0.093 C
HETATM   21  O1  UPD A1001       5.970  -4.633  20.022  1.00  0.00    -0.280 OA
ENDBRANCH   2  13
TORSDOF 3
