MODEL        1
REMARK THIS MODEL IS IDENTICAL TO THE INPUT LIGAND AND NOT FROM DOCKING
REMARK 921   NORMALIZED FREE ENERGY PREDICTED BY IDOCK:   -0.79 KCAL/MOL
REMARK 922        TOTAL FREE ENERGY PREDICTED BY IDOCK:   -0.96 KCAL/MOL
REMARK 923 INTER-LIGAND FREE ENERGY PREDICTED BY IDOCK:   -1.30 KCAL/MOL
REMARK 924 INTRA-LIGAND FREE ENERGY PREDICTED BY IDOCK:    0.35 KCAL/MOL
REMARK 927      BINDING AFFINITY PREDICTED BY RF-SCORE:    0.00 PKD
ROOT
HETATM    1  C10 RN2 A 401      11.656  -1.287  22.778  1.00  0.00    -0.443 C  
HETATM    2  C13 RN2 A 401      13.635  -1.528  24.257  1.00  0.00    -0.604 C  
HETATM    3  C11 RN2 A 401      13.128  -0.981  22.917  1.00  0.00    -0.437 C  
HETATM    4  C12 RN2 A 401      13.904  -1.671  21.793  1.00  0.00    -0.595 C  
ENDROOT
BRANCH   1   5
HETATM    5  C09 RN2 A 401      11.001  -0.360  21.779  1.00  0.00    -0.387 C  
BRANCH   5   6
HETATM    6  N14 RN2 A 401      10.934   0.965  22.340  1.00  0.00    -0.489 N  
HETATM    7  O16 RN2 A 401       9.592   1.779  20.658  1.00  0.00    -0.600 OA 
HETATM    8  C15 RN2 A 401      10.176   2.019  21.660  1.00  0.00    -0.410 C  
HETATM    9  H14 RN2 A 401      11.416   1.171  23.215  1.00  0.00     0.000 HD 
BRANCH   8  10
HETATM   10  O17 RN2 A 401      10.124   3.341  22.141  1.00  0.00    -0.299 OA 
BRANCH  10  11
HETATM   11  C18 RN2 A 401       9.128   3.553  23.060  1.00  0.00    -0.045 C  
BRANCH  11  12
HETATM   12  C19 RN2 A 401       7.727   3.632  22.435  1.00  0.00    -0.196 A  
HETATM   13  C20 RN2 A 401       7.317   4.770  21.750  1.00  0.00    -0.302 A  
HETATM   14  C24 RN2 A 401       6.852   2.556  22.571  1.00  0.00    -0.179 A  
HETATM   15  C22 RN2 A 401       5.174   3.744  21.340  1.00  0.00    -0.211 A  
HETATM   16  C23 RN2 A 401       5.581   2.616  22.025  1.00  0.00    -0.190 A  
HETATM   17  C21 RN2 A 401       6.042   4.819  21.203  1.00  0.00    -0.335 A  
ENDBRANCH  11  12
ENDBRANCH  10  11
ENDBRANCH   8  10
ENDBRANCH   5   6
BRANCH   5  18
HETATM   18  C07 RN2 A 401       9.561  -0.826  21.457  1.00  0.00    -0.338 C  
HETATM   19  N06 RN2 A 401       9.223  -1.558  20.204  1.00  0.00     0.310 N  
HETATM   20  O08 RN2 A 401       8.683  -0.581  22.224  1.00  0.00    -0.274 OA 
HETATM   21  H06 RN2 A 401       9.948  -1.765  19.517  1.00  0.00     0.000 HD 
BRANCH  19  22
HETATM   22  C05 RN2 A 401       7.883  -1.965  19.975  1.00  0.00     1.013 C  
BRANCH  22  23
HETATM   23  C04 RN2 A 401       7.217  -0.873  19.040  1.00  0.00    -0.225 C  
BRANCH  23  24
HETATM   24  C03 RN2 A 401       6.925   0.488  19.655  1.00  0.00    -0.387 C  
BRANCH  24  25
HETATM   25  C02 RN2 A 401       5.618   0.969  18.999  1.00  0.00    -0.259 C  
HETATM   26  C01 RN2 A 401       5.708   2.429  18.551  1.00  0.00    -0.042 C  
ENDBRANCH  24  25
ENDBRANCH  23  24
ENDBRANCH  22  23
BRANCH  22  27
HETATM   27  C25 RN2 A 401       7.647  -3.208  19.267  1.00  0.00     3.773 C  
HETATM   28  H26 RN2 A 401       7.139  -5.152  19.412  1.00  0.00     0.000 HD 
HETATM   29  O26 RN2 A 401       7.294  -4.338  19.876  1.00  0.00     0.847 OA 
ENDBRANCH  22  27
ENDBRANCH  19  22
ENDBRANCH   5  18
ENDBRANCH   1   5
TORSDOF 11
ENDMDL
