MODEL        1
REMARK THIS MODEL IS IDENTICAL TO THE INPUT LIGAND AND NOT FROM DOCKING
REMARK 921   NORMALIZED FREE ENERGY PREDICTED BY IDOCK:   -2.90 KCAL/MOL
REMARK 922        TOTAL FREE ENERGY PREDICTED BY IDOCK:   -3.99 KCAL/MOL
REMARK 923 INTER-LIGAND FREE ENERGY PREDICTED BY IDOCK:   -3.58 KCAL/MOL
REMARK 924 INTRA-LIGAND FREE ENERGY PREDICTED BY IDOCK:   -0.40 KCAL/MOL
REMARK 927      BINDING AFFINITY PREDICTED BY RF-SCORE:    0.00 PKD
ROOT
HETATM    1  C10 RMZ A 409       4.824   3.352 -22.290  1.00  0.00    -0.092 C  
HETATM    2  C09 RMZ A 409       3.267   3.517 -22.811  1.00  0.00    -0.053 C  
HETATM    3  N08 RMZ A 409       2.843   2.350 -23.636  1.00  0.00    -0.025 NA 
HETATM    4  C13 RMZ A 409       3.168   1.085 -22.928  1.00  0.00    -0.043 C  
HETATM    5  N11 RMZ A 409       5.060   2.098 -21.669  1.00  0.00    -0.088 NA 
HETATM    6  C12 RMZ A 409       4.667   0.959 -22.414  1.00  0.00    -0.066 C  
ENDROOT
BRANCH   3   7
HETATM    7  C05 RMZ A 409       1.359   2.422 -23.921  1.00  0.00    -0.008 A  
HETATM    8  C03 RMZ A 409      -0.600   3.775 -24.768  1.00  0.00     0.000 A  
HETATM    9  C04 RMZ A 409       0.775   3.603 -24.469  1.00  0.00    -0.004 A  
HETATM   10  C02 RMZ A 409      -1.507   2.722 -24.522  1.00  0.00    -0.004 A  
HETATM   11  C06 RMZ A 409       0.422   1.400 -23.697  1.00  0.00    -0.007 A  
HETATM   12  C26 RMZ A 409      -1.137   5.055 -25.356  1.00  0.00     0.000 C  
HETATM   13  C07 RMZ A 409      -0.949   1.551 -23.989  1.00  0.00    -0.004 A  
HETATM   14  C01 RMZ A 409      -2.990   2.844 -24.831  1.00  0.00    -0.003 C  
ENDBRANCH   3   7
BRANCH   5  15
HETATM   15  C14 RMZ A 409       6.550   1.887 -21.268  1.00  0.00    -0.102 C  
BRANCH  15  16
HETATM   16  C15 RMZ A 409       7.131   3.155 -20.597  1.00  0.00    -0.240 C  
BRANCH  16  17
HETATM   17  C16 RMZ A 409       7.856   2.944 -19.247  1.00  0.00    -0.278 C  
HETATM   18  C17 RMZ A 409       9.384   2.755 -19.282  1.00  0.00    -0.269 A  
HETATM   19  C22 RMZ A 409      10.006   3.828 -18.598  1.00  0.00    -0.449 A  
HETATM   20  C21 RMZ A 409      11.383   3.913 -18.480  1.00  0.00    -0.555 A  
HETATM   21  C23 RMZ A 409       8.932   4.690 -18.129  1.00  0.00    -0.378 C  
HETATM   22  N25 RMZ A 409       7.707   4.206 -18.469  1.00  0.00    -0.252 N  
HETATM   23  O24 RMZ A 409       9.021   5.762 -17.476  1.00  0.00     0.115 OA 
HETATM   24  C20 RMZ A 409      12.206   2.927 -19.035  1.00  0.00    -0.370 A  
HETATM   25  H25 RMZ A 409       6.818   4.643 -18.227  1.00  0.00     0.000 HD 
HETATM   26  C19 RMZ A 409      11.622   1.859 -19.710  1.00  0.00    -0.211 A  
HETATM   27  C18 RMZ A 409      10.219   1.776 -19.830  1.00  0.00    -0.193 A  
ENDBRANCH  16  17
ENDBRANCH  15  16
ENDBRANCH   5  15
TORSDOF 4
ENDMDL
