MODEL        1
REMARK THIS MODEL IS IDENTICAL TO THE INPUT LIGAND AND NOT FROM DOCKING
REMARK 921   NORMALIZED FREE ENERGY PREDICTED BY IDOCK:   -8.41 KCAL/MOL
REMARK 922        TOTAL FREE ENERGY PREDICTED BY IDOCK:  -11.01 KCAL/MOL
REMARK 923 INTER-LIGAND FREE ENERGY PREDICTED BY IDOCK:  -11.85 KCAL/MOL
REMARK 924 INTRA-LIGAND FREE ENERGY PREDICTED BY IDOCK:    0.84 KCAL/MOL
REMARK 927      BINDING AFFINITY PREDICTED BY RF-SCORE:    0.00 PKD
ROOT
HETATM    1  C02 X77 A 401     -19.908  21.124 -29.295  1.00  0.00    -0.072 C  
HETATM    2  O01 X77 A 401     -19.635  22.244 -29.036  1.00  0.00    -0.302 OA 
HETATM    3  N03 X77 A 401     -19.914  20.161 -28.186  1.00  0.00    -0.278 N  
ENDROOT
BRANCH   1   4
HETATM    4  C30 X77 A 401     -20.246  20.704 -30.744  1.00  0.00     0.116 A  
HETATM    5  H32 X77 A 401     -21.169  18.827 -33.143  1.00  0.00     0.000 HD 
HETATM    6  C33 X77 A 401     -20.588  20.828 -32.869  1.00  0.00    -0.395 A  
HETATM    7  C31 X77 A 401     -20.656  19.470 -31.212  1.00  0.00    -0.159 A  
HETATM    8  N34 X77 A 401     -20.218  21.522 -31.775  1.00  0.00    -0.437 NA 
HETATM    9  N32 X77 A 401     -20.860  19.573 -32.520  1.00  0.00    -0.341 NA 
ENDBRANCH   1   4
BRANCH   3  10
HETATM   10  C20 X77 A 401     -20.313  18.742 -28.341  1.00  0.00    -0.244 A  
HETATM   11  C21 X77 A 401     -21.658  18.414 -28.147  1.00  0.00    -0.186 A  
HETATM   12  C22 X77 A 401     -22.069  17.082 -28.287  1.00  0.00    -0.248 A  
HETATM   13  C29 X77 A 401     -19.389  17.775 -28.688  1.00  0.00    -0.435 A  
HETATM   14  C28 X77 A 401     -19.802  16.438 -28.829  1.00  0.00    -0.523 A  
HETATM   15  C23 X77 A 401     -21.139  16.094 -28.633  1.00  0.00    -0.298 A  
BRANCH  15  16
HETATM   16  C24 X77 A 401     -21.605  14.599 -28.784  1.00  0.00    -0.369 C  
HETATM   17  C26 X77 A 401     -20.444  13.613 -29.034  1.00  0.00    -0.620 C  
HETATM   18  C25 X77 A 401     -22.299  14.196 -27.479  1.00  0.00    -0.535 C  
HETATM   19  C27 X77 A 401     -22.583  14.477 -29.950  1.00  0.00    -0.563 C  
ENDBRANCH  15  16
ENDBRANCH   3  10
BRANCH   3  20
HETATM   20  C04 X77 A 401     -19.682  20.621 -26.849  1.00  0.00    -0.269 C  
BRANCH  20  21
HETATM   21  C05 X77 A 401     -19.506  19.375 -25.932  1.00  0.00    -0.282 C  
HETATM   22  O13 X77 A 401     -18.546  18.654 -26.028  1.00  0.00    -0.253 OA 
HETATM   23  H06 X77 A 401     -21.319  19.803 -24.854  1.00  0.00     0.000 HD 
HETATM   24  N06 X77 A 401     -20.539  19.148 -24.908  1.00  0.00    -0.184 N  
BRANCH  24  25
HETATM   25  C07 X77 A 401     -20.504  18.047 -23.977  1.00  0.00    -0.161 C  
HETATM   26  C11 X77 A 401     -21.763  15.894 -23.429  1.00  0.00    -0.381 C  
HETATM   27  C12 X77 A 401     -21.457  16.957 -24.497  1.00  0.00    -0.233 C  
HETATM   28  C08 X77 A 401     -21.000  18.590 -22.640  1.00  0.00    -0.216 C  
HETATM   29  C09 X77 A 401     -21.117  17.490 -21.586  1.00  0.00    -0.313 C  
HETATM   30  C10 X77 A 401     -22.085  16.444 -22.055  1.00  0.00    -0.305 C  
ENDBRANCH  24  25
ENDBRANCH  20  21
BRANCH  20  31
HETATM   31  C14 X77 A 401     -18.425  21.391 -26.572  1.00  0.00    -0.335 A  
HETATM   32  C15 X77 A 401     -18.498  22.448 -25.736  1.00  0.00    -0.476 A  
HETATM   33  C17 X77 A 401     -16.149  22.739 -25.993  1.00  0.00    -0.643 A  
HETATM   34  C19 X77 A 401     -17.231  21.012 -27.123  1.00  0.00    -0.513 A  
HETATM   35  N18 X77 A 401     -16.096  21.679 -26.816  1.00  0.00    -0.755 NA 
HETATM   36  C16 X77 A 401     -17.350  23.138 -25.438  1.00  0.00    -0.642 A  
ENDBRANCH  20  31
ENDBRANCH   3  20
TORSDOF 7
ENDMDL
