REMARK 10 active torsions:
REMARK  status: ('A' for Active; 'I' for Inactive)
REMARK    1  A    between atoms: C7_1  and  O8_2
REMARK    2  A    between atoms: C7_1  and  C1_27
REMARK    3  A    between atoms: O8_2  and  C9_3
REMARK    4  A    between atoms: N11_4  and  C12_7
REMARK    5  A    between atoms: C12_7  and  C17_8
REMARK    6  A    between atoms: C12_7  and  C13_23
REMARK    7  A    between atoms: N19_11  and  C20_12
REMARK    8  A    between atoms: C20_12  and  C24_13
REMARK    9  A    between atoms: C20_12  and  C21_20
REMARK   10  A    between atoms: C24_13  and  C25_14
ROOT
HETATM    1  C7  K36 A 401       7.079  26.123  -8.765  1.00  0.00     0.207 C
ENDROOT
BRANCH   1   2
HETATM    2  O8  K36 A 401       6.948  26.319 -10.325  1.00  0.00    -0.298 OA
BRANCH   2   3
HETATM    3  C9  K36 A 401       5.863  27.160 -10.715  1.00  0.00     0.339 C
HETATM    4  N11 K36 A 401       5.713  28.423 -10.180  1.00  0.00    -0.222 N
HETATM    5  H11 K36 A 401       6.509  28.899  -9.755  1.00  0.00     0.133 HD
HETATM    6  O10 K36 A 401       5.016  26.740 -11.454  1.00  0.00    -0.245 OA
BRANCH   4   7
HETATM    7  C12 K36 A 401       4.375  29.090 -10.227  1.00  0.00     0.146 C
BRANCH   7   8
HETATM    8  C17 K36 A 401       4.018  29.615 -11.728  1.00  0.00     0.218 C
HETATM    9  O18 K36 A 401       4.934  29.944 -12.422  1.00  0.00    -0.278 OA
HETATM   10  H19 K36 A 401       1.898  29.545 -11.664  1.00  0.00     0.131 HD
HETATM   11  N19 K36 A 401       2.696  29.782 -12.254  1.00  0.00    -0.252 N
BRANCH  11  12
HETATM   12  C20 K36 A 401       2.461  30.257 -13.545  1.00  0.00     0.087 C
BRANCH  12  13
HETATM   13  C24 K36 A 401       2.257  29.053 -14.668  1.00  0.00     0.034 C
BRANCH  13  14
HETATM   14  C25 K36 A 401       3.210  27.821 -14.521  1.00  0.00     0.082 C
HETATM   15  C26 K36 A 401       4.661  28.084 -14.996  1.00  0.00     0.036 C
HETATM   16  C27 K36 A 401       4.790  27.461 -16.414  1.00  0.00     0.146 C
HETATM   17  N28 K36 A 401       3.663  26.531 -16.501  1.00  0.00    -0.250 NA
HETATM   18  C29 K36 A 401       2.725  26.681 -15.454  1.00  0.00     0.245 C
HETATM   19  O30 K36 A 401       1.717  26.028 -15.316  1.00  0.00    -0.271 OA
ENDBRANCH  13  14
ENDBRANCH  12  13
BRANCH  12  20
HETATM   20  C21 K36 A 401       1.241  31.121 -13.596  1.00  0.00     0.174 C
HETATM   21  O22 K36 A 401       1.051  31.763 -14.850  1.00  0.00    -0.393 OA
HETATM   22  H22 K36 A 401       0.276  32.312 -14.882  1.00  0.00     0.209 HD
ENDBRANCH  12  20
ENDBRANCH  11  12
ENDBRANCH   7   8
BRANCH   7  23
HETATM   23  C13 K36 A 401       4.449  30.325  -9.317  1.00  0.00     0.031 C
HETATM   24  C14 K36 A 401       4.403  30.102  -7.818  1.00  0.00    -0.015 C
HETATM   25  C15 K36 A 401       4.278  31.471  -7.048  1.00  0.00     0.007 C
HETATM   26  C16 K36 A 401       3.262  29.170  -7.426  1.00  0.00     0.007 C
ENDBRANCH   7  23
ENDBRANCH   4   7
ENDBRANCH   2   3
ENDBRANCH   1   2
BRANCH   1  27
HETATM   27  C1  K36 A 401       7.822  24.897  -8.150  1.00  0.00    -0.021 A
HETATM   28  C2  K36 A 401       7.156  23.729  -7.736  1.00  0.00     0.006 A
HETATM   29  C6  K36 A 401       9.240  24.909  -7.951  1.00  0.00     0.006 A
HETATM   30  C5  K36 A 401       9.947  23.814  -7.392  1.00  0.00     0.000 A
HETATM   31  C3  K36 A 401       7.861  22.631  -7.188  1.00  0.00     0.000 A
HETATM   32  C4  K36 A 401       9.264  22.660  -7.018  1.00  0.00     0.000 A
ENDBRANCH   1  27
TORSDOF 10
