MODEL        1
REMARK THIS MODEL IS IDENTICAL TO THE INPUT LIGAND AND NOT FROM DOCKING
REMARK 921   NORMALIZED FREE ENERGY PREDICTED BY IDOCK:    6.10 KCAL/MOL
REMARK 922        TOTAL FREE ENERGY PREDICTED BY IDOCK:    6.93 KCAL/MOL
REMARK 923 INTER-LIGAND FREE ENERGY PREDICTED BY IDOCK:    6.46 KCAL/MOL
REMARK 924 INTRA-LIGAND FREE ENERGY PREDICTED BY IDOCK:    0.47 KCAL/MOL
REMARK 927      BINDING AFFINITY PREDICTED BY RF-SCORE:    0.00 PKD
ROOT
HETATM    1  C1  SIN A 409       7.075  -3.870  19.966  1.00  0.00     1.899 C  
HETATM    2  O1  SIN A 409       6.173  -4.689  19.725  1.00  0.00    -0.480 OA 
HETATM    3  C2  SIN A 409       7.495  -2.882  18.942  1.00  0.00     4.544 C  
HETATM    4  O2  SIN A 409       7.641  -3.917  21.095  1.00  0.00     0.062 OA 
ENDROOT
BRANCH   3   5
HETATM    5  C3  SIN A 409       7.947  -1.573  19.594  1.00  0.00     1.213 C  
HETATM    6  C4  SIN A 409       6.753  -0.843  20.182  1.00  0.00    -0.324 C  
HETATM    7  O3  SIN A 409       6.423   0.282  19.740  1.00  0.00    -0.336 OA 
HETATM    8  O4  SIN A 409       6.106  -1.365  21.135  1.00  0.00    -0.121 OA 
ENDBRANCH   3   5
TORSDOF 1
ENDMDL
