MODEL        1
REMARK THIS MODEL IS IDENTICAL TO THE INPUT LIGAND AND NOT FROM DOCKING
REMARK 921   NORMALIZED FREE ENERGY PREDICTED BY IDOCK:   -2.27 KCAL/MOL
REMARK 922        TOTAL FREE ENERGY PREDICTED BY IDOCK:   -4.02 KCAL/MOL
REMARK 923 INTER-LIGAND FREE ENERGY PREDICTED BY IDOCK:   -3.73 KCAL/MOL
REMARK 924 INTRA-LIGAND FREE ENERGY PREDICTED BY IDOCK:   -0.29 KCAL/MOL
REMARK 927      BINDING AFFINITY PREDICTED BY RF-SCORE:    0.00 PKD
ROOT
HETATM    1  O1  GHX A 401     -11.677   2.594   4.956  1.00  0.00    -0.713 OA 
HETATM    2  C34 GHX A 401     -10.926   2.591   3.993  1.00  0.00    -0.467 C  
HETATM    3  N33 GHX A 401      -9.816   3.310   3.864  1.00  0.00    -0.778 N  
HETATM    4  H33 GHX A 401      -9.509   3.998   4.552  1.00  0.00     0.000 HD 
HETATM    5  C32 GHX A 401      -9.085   3.018   2.647  1.00  0.00    -0.369 C  
HETATM    6  C31 GHX A 401      -9.902   1.941   1.937  1.00  0.00    -0.038 C  
HETATM    7  C30 GHX A 401     -11.161   1.746   2.779  1.00  0.00    -0.382 C  
ENDROOT
BRANCH   7   8
HETATM    8  C29 GHX A 401     -11.349   0.279   3.156  1.00  0.00     0.012 C  
BRANCH   8   9
HETATM    9  C26 GHX A 401     -11.817  -0.513   1.939  1.00  0.00     0.758 C  
BRANCH   9  10
HETATM   10  N24 GHX A 401     -13.031   0.108   1.441  1.00  0.00     0.077 N  
HETATM   11  O25 GHX A 401     -12.769  -0.420  -0.730  1.00  0.00    -0.217 OA 
HETATM   12  H24 GHX A 401     -13.552   0.733   2.057  1.00  0.00     0.000 HD 
HETATM   13  C23 GHX A 401     -13.490  -0.109   0.208  1.00  0.00    -0.305 C  
BRANCH  13  14
HETATM   14  C15 GHX A 401     -14.969   0.070   0.001  1.00  0.00    -0.349 C  
BRANCH  14  15
HETATM   15  N13 GHX A 401     -15.299   1.475  -0.178  1.00  0.00    -0.288 N  
HETATM   16  O14 GHX A 401     -14.112   2.600   1.385  1.00  0.00    -0.421 OA 
HETATM   17  C12 GHX A 401     -14.536   2.483   0.246  1.00  0.00    -0.351 C  
HETATM   18  H13 GHX A 401     -16.169   1.704  -0.658  1.00  0.00     0.000 HD 
BRANCH  17  19
HETATM   19  O11 GHX A 401     -14.187   3.495  -0.730  1.00  0.00    -0.229 OA 
BRANCH  19  20
HETATM   20  C10 GHX A 401     -13.475   4.658  -0.330  1.00  0.00    -0.155 C  
BRANCH  20  21
HETATM   21  C1  GHX A 401     -14.280   5.827  -0.826  1.00  0.00     0.062 A  
HETATM   22  C5  GHX A 401     -16.171   6.657  -2.081  1.00  0.00    -0.370 A  
HETATM   23  C6  GHX A 401     -15.409   5.596  -1.610  1.00  0.00    -0.346 A  
HETATM   24  C4  GHX A 401     -15.798   7.951  -1.759  1.00  0.00    -0.372 A  
HETATM   25  C3  GHX A 401     -14.672   8.168  -0.976  1.00  0.00     0.097 A  
HETATM   26  C2  GHX A 401     -13.901   7.119  -0.503  1.00  0.00    -0.110 A  
ENDBRANCH  20  21
ENDBRANCH  19  20
ENDBRANCH  17  19
ENDBRANCH  14  15
BRANCH  14  27
HETATM   27  C16 GHX A 401     -15.392  -0.798  -1.191  1.00  0.00    -0.400 C  
BRANCH  27  28
HETATM   28  C17 GHX A 401     -16.875  -0.800  -1.537  1.00  0.00    -0.562 A  
HETATM   29  C22 GHX A 401     -17.357  -1.715  -2.473  1.00  0.00    -0.322 A  
HETATM   30  C18 GHX A 401     -17.772   0.087  -0.955  1.00  0.00    -0.424 A  
HETATM   31  C19 GHX A 401     -19.117   0.057  -1.308  1.00  0.00    -0.471 A  
HETATM   32  C21 GHX A 401     -18.701  -1.750  -2.834  1.00  0.00    -0.400 A  
HETATM   33  C20 GHX A 401     -19.583  -0.860  -2.243  1.00  0.00    -0.269 A  
ENDBRANCH  27  28
ENDBRANCH  14  27
ENDBRANCH  13  14
ENDBRANCH   9  10
BRANCH   9  34
HETATM   34  C27 GHX A 401     -12.122  -1.984   2.251  1.00  0.00     3.957 C  
HETATM   35  H28 GHX A 401     -11.170  -3.599   2.950  1.00  0.00     0.000 HD 
HETATM   36  O28 GHX A 401     -10.981  -2.688   2.757  1.00  0.00     0.416 OA 
ENDBRANCH   9  34
ENDBRANCH   8   9
ENDBRANCH   7   8
TORSDOF 11
ENDMDL
