REMARK  1 active torsions:
REMARK  status: ('A' for Active; 'I' for Inactive)
REMARK    1  A    between atoms: C3_3  and  N_8
ROOT
HETATM    1  N1  UHA A1001       7.149   0.622  17.263  1.00  0.00    -0.262 NA
HETATM    2  C4  UHA A1001       7.772  -0.036  18.246  1.00  0.00     0.131 A
HETATM    3  C3  UHA A1001       7.337  -0.016  19.570  1.00  0.00     0.043 A
HETATM    4  C7  UHA A1001       6.205   0.744  19.907  1.00  0.00    -0.029 A
HETATM    5  C5  UHA A1001       6.051   1.315  17.587  1.00  0.00     0.111 A
HETATM    6  C6  UHA A1001       5.552   1.403  18.873  1.00  0.00     0.024 A
HETATM    7  C8  UHA A1001       5.757   0.923  21.335  1.00  0.00     0.045 C
ENDROOT
BRANCH   3   8
HETATM    8  N   UHA A1001       8.002  -0.764  20.556  1.00  0.00    -0.226 N
HETATM    9  H   UHA A1001       7.561  -1.628  20.872  1.00  0.00     0.136 HD
HETATM   10  O   UHA A1001       9.823   0.577  20.789  1.00  0.00    -0.279 OA
HETATM   11  C1  UHA A1001       9.677  -1.363  22.221  1.00  0.00     0.099 C
HETATM   12  C2  UHA A1001       9.184  -0.422  21.117  1.00  0.00     0.212 C
HETATM   13  C   UHA A1001       8.854  -1.294  23.510  1.00  0.00     0.022 C
HETATM   14  C9  UHA A1001      11.156  -1.069  22.442  1.00  0.00    -0.035 A
HETATM   15  C10 UHA A1001      11.576  -0.163  23.410  1.00  0.00     0.004 A
HETATM   16  C11 UHA A1001      12.905   0.222  23.486  1.00  0.00     0.002 A
HETATM   17  C12 UHA A1001      13.836  -0.298  22.596  1.00  0.00     0.020 A
HETATM   18  C13 UHA A1001      13.419  -1.242  21.678  1.00  0.00     0.041 A
HETATM   19  C14 UHA A1001      12.099  -1.635  21.591  1.00  0.00     0.024 A
HETATM   20 CL   UHA A1001      14.589  -1.987  20.627  1.00  0.00    -0.084 Cl
ENDBRANCH   3   8
TORSDOF 1
