MODEL        1
REMARK THIS MODEL IS IDENTICAL TO THE INPUT LIGAND AND NOT FROM DOCKING
REMARK 921   NORMALIZED FREE ENERGY PREDICTED BY IDOCK:   -6.21 KCAL/MOL
REMARK 922        TOTAL FREE ENERGY PREDICTED BY IDOCK:   -7.50 KCAL/MOL
REMARK 923 INTER-LIGAND FREE ENERGY PREDICTED BY IDOCK:   -7.29 KCAL/MOL
REMARK 924 INTRA-LIGAND FREE ENERGY PREDICTED BY IDOCK:   -0.21 KCAL/MOL
REMARK 927      BINDING AFFINITY PREDICTED BY RF-SCORE:    0.00 PKD
ROOT
HETATM    1  N1  UGP A1001       7.395  -0.438  21.107  1.00  0.00    -0.290 N  
HETATM    2  O   UGP A1001       9.192   0.945  21.134  1.00  0.00    -0.633 OA 
HETATM    3  C6  UGP A1001       8.559   0.008  21.611  1.00  0.00    -0.270 C  
HETATM    4  H1  UGP A1001       6.958  -1.237  21.567  1.00  0.00     0.000 HD 
ENDROOT
BRANCH   1   5
HETATM    5  C5  UGP A1001       6.734   0.114  19.993  1.00  0.00    -0.358 A  
HETATM    6  C2  UGP A1001       4.909   1.330  19.050  1.00  0.00    -0.574 A  
HETATM    7  C4  UGP A1001       7.252   0.001  18.701  1.00  0.00    -0.443 A  
HETATM    8  N   UGP A1001       6.653   0.519  17.622  1.00  0.00    -0.477 NA 
HETATM    9  C   UGP A1001       4.928   1.004  21.550  1.00  0.00    -0.396 C  
HETATM   10  C3  UGP A1001       5.496   1.163  17.811  1.00  0.00    -0.464 A  
HETATM   11  C1  UGP A1001       5.525   0.801  20.180  1.00  0.00    -0.549 A  
ENDBRANCH   1   5
BRANCH   3  12
HETATM   12  C7  UGP A1001       9.069  -0.775  22.804  1.00  0.00    -0.239 C  
BRANCH  12  13
HETATM   13  C8  UGP A1001      10.555  -0.547  22.952  1.00  0.00    -0.269 A  
HETATM   14  C9  UGP A1001      11.052   0.270  23.961  1.00  0.00    -0.304 A  
HETATM   15  C11 UGP A1001      13.291  -0.025  23.149  1.00  0.00    -0.317 A  
HETATM   16  C12 UGP A1001      12.810  -0.861  22.144  1.00  0.00    -0.503 A  
HETATM   17  C10 UGP A1001      12.409   0.531  24.060  1.00  0.00    -0.583 A  
HETATM   18  C13 UGP A1001      13.724  -1.489  21.225  1.00  0.00    -0.433 C  
HETATM   19  C14 UGP A1001      11.444  -1.119  22.045  1.00  0.00    -0.498 A  
HETATM   20  N2  UGP A1001      14.439  -2.014  20.505  1.00  0.00     0.306 NA 
ENDBRANCH  12  13
ENDBRANCH   3  12
TORSDOF 3
ENDMDL
