MODEL        1
REMARK THIS MODEL IS IDENTICAL TO THE INPUT LIGAND AND NOT FROM DOCKING
REMARK 921   NORMALIZED FREE ENERGY PREDICTED BY IDOCK:   -2.38 KCAL/MOL
REMARK 922        TOTAL FREE ENERGY PREDICTED BY IDOCK:   -4.18 KCAL/MOL
REMARK 923 INTER-LIGAND FREE ENERGY PREDICTED BY IDOCK:   -4.20 KCAL/MOL
REMARK 924 INTRA-LIGAND FREE ENERGY PREDICTED BY IDOCK:    0.01 KCAL/MOL
REMARK 927      BINDING AFFINITY PREDICTED BY RF-SCORE:    0.00 PKD
ROOT
HETATM    1  O26 O6K A 502      11.831  -5.792  23.341  1.00  0.00    -0.150 OA 
HETATM    2  C24 O6K A 502      11.055  -5.520  22.439  1.00  0.00    -0.192 C  
HETATM    3  H23 O6K A 502       9.680  -4.337  21.574  1.00  0.00     0.000 HD 
HETATM    4  N23 O6K A 502      10.377  -4.374  22.318  1.00  0.00     0.026 N  
ENDROOT
BRANCH   2   5
HETATM    5  O25 O6K A 502      10.794  -6.486  21.388  1.00  0.00    -0.188 OA 
HETATM    6  C31 O6K A 502      11.566  -8.561  22.339  1.00  0.00    -0.184 C  
HETATM    7  C27 O6K A 502      11.592  -7.649  21.100  1.00  0.00    -0.126 C  
HETATM    8  C33 O6K A 502      13.034  -7.252  20.756  1.00  0.00    -0.115 C  
HETATM    9  C32 O6K A 502      11.003  -8.363  19.874  1.00  0.00    -0.351 C  
ENDBRANCH   2   5
BRANCH   4  10
HETATM   10  C19 O6K A 502      10.511  -3.257  23.071  1.00  0.00    -0.216 C  
HETATM   11  C21 O6K A 502       9.776  -2.076  22.588  1.00  0.00    -0.277 C  
HETATM   12  O22 O6K A 502       9.071  -2.127  21.535  1.00  0.00    -0.406 OA 
HETATM   13  N15 O6K A 502       9.874  -0.879  23.325  1.00  0.00    -0.219 N  
HETATM   14  C18 O6K A 502      11.312  -3.134  24.223  1.00  0.00    -0.248 C  
HETATM   15  C16 O6K A 502      10.667  -0.827  24.422  1.00  0.00    -0.200 C  
HETATM   16  C17 O6K A 502      11.391  -1.923  24.880  1.00  0.00    -0.325 C  
BRANCH  13  17
HETATM   17  C20 O6K A 502       9.148   0.279  22.802  1.00  0.00    -0.295 C  
BRANCH  17  18
HETATM   18  C36 O6K A 502       9.908   0.711  21.576  1.00  0.00    -0.274 C  
HETATM   19  O37 O6K A 502      11.128   0.554  21.519  1.00  0.00    -0.191 OA 
HETATM   20  H38 O6K A 502       8.181   1.324  20.682  1.00  0.00     0.000 HD 
HETATM   21  N38 O6K A 502       9.195   1.270  20.584  1.00  0.00     0.504 N  
BRANCH  21  22
HETATM   22  C40 O6K A 502       9.796   1.792  19.396  1.00  0.00     0.935 C  
BRANCH  22  23
HETATM   23  C42 O6K A 502       9.250   1.152  18.080  1.00  0.00     0.210 C  
BRANCH  23  24
HETATM   24  C45 O6K A 502       9.773  -0.250  17.989  1.00  0.00    -0.374 C  
HETATM   25  C54 O6K A 502      11.278  -0.341  17.708  1.00  0.00    -0.362 C  
HETATM   26  C47 O6K A 502       9.197  -1.141  16.910  1.00  0.00    -0.516 C  
HETATM   27  O48 O6K A 502       8.004  -1.151  16.621  1.00  0.00    -0.394 OA 
HETATM   28  C51 O6K A 502      11.469  -1.705  17.056  1.00  0.00    -0.367 C  
HETATM   29  N49 O6K A 502      10.173  -1.911  16.400  1.00  0.00    -0.394 NA 
ENDBRANCH  23  24
ENDBRANCH  22  23
BRANCH  22  30
HETATM   30  C57 O6K A 502       9.601   3.286  19.630  1.00  0.00     3.792 C  
HETATM   31  H40 O6K A 502       9.798   4.693  21.138  1.00  0.00     0.000 HD 
HETATM   32  O40 O6K A 502       9.919   3.762  20.992  1.00  0.00     0.365 OA 
BRANCH  30  33
HETATM   33  C35 O6K A 502      10.554   4.044  18.797  1.00  0.00     1.070 C  
HETATM   34  N36 O6K A 502      11.356   4.866  19.534  1.00  0.00    -0.359 N  
HETATM   35  O41 O6K A 502      10.478   3.883  17.593  1.00  0.00    -0.555 OA 
HETATM   36  H36 O6K A 502      11.239   4.849  20.547  1.00  0.00     0.000 HD 
BRANCH  34  37
HETATM   37  C13 O6K A 502      12.370   5.770  18.992  1.00  0.00    -0.327 C  
BRANCH  37  38
HETATM   38  C14 O6K A 502      13.730   5.087  18.915  1.00  0.00    -0.310 A  
HETATM   39  C28 O6K A 502      13.937   3.812  19.442  1.00  0.00    -0.285 A  
HETATM   40  C26 O6K A 502      15.198   3.215  19.371  1.00  0.00    -0.211 A  
HETATM   41  C25 O6K A 502      16.267   3.890  18.768  1.00  0.00    -0.207 A  
HETATM   42  C23 O6K A 502      16.070   5.166  18.238  1.00  0.00    -0.205 A  
HETATM   43  C15 O6K A 502      14.805   5.757  18.314  1.00  0.00    -0.313 A  
ENDBRANCH  37  38
ENDBRANCH  34  37
ENDBRANCH  30  33
ENDBRANCH  22  30
ENDBRANCH  21  22
ENDBRANCH  17  18
BRANCH  17  44
HETATM   44  C22 O6K A 502       9.003   1.431  23.806  1.00  0.00    -0.390 C  
BRANCH  44  45
HETATM   45  C29 O6K A 502       8.204   0.991  25.035  1.00  0.00    -0.341 C  
HETATM   46  C34 O6K A 502       7.462   2.042  25.855  1.00  0.00    -0.591 C  
HETATM   47  C30 O6K A 502       6.684   1.164  24.883  1.00  0.00    -0.635 C  
ENDBRANCH  44  45
ENDBRANCH  17  44
ENDBRANCH  13  17
ENDBRANCH   4  10
TORSDOF 13
ENDMDL
