MODEL        1
REMARK THIS MODEL IS IDENTICAL TO THE INPUT LIGAND AND NOT FROM DOCKING
REMARK 921   NORMALIZED FREE ENERGY PREDICTED BY IDOCK:   -3.67 KCAL/MOL
REMARK 922        TOTAL FREE ENERGY PREDICTED BY IDOCK:   -5.60 KCAL/MOL
REMARK 923 INTER-LIGAND FREE ENERGY PREDICTED BY IDOCK:   -5.17 KCAL/MOL
REMARK 924 INTRA-LIGAND FREE ENERGY PREDICTED BY IDOCK:   -0.43 KCAL/MOL
REMARK 927      BINDING AFFINITY PREDICTED BY RF-SCORE:    0.00 PKD
ROOT
HETATM    1  N1  VEY A 405       7.849  -1.419  21.709  1.00  0.00    -0.312 N  
HETATM    2  C4  VEY A 405       7.046  -2.478  21.389  1.00  0.00     0.144 C  
HETATM    3  O1  VEY A 405       5.915  -2.318  20.963  1.00  0.00    -0.649 OA 
ENDROOT
BRANCH   1   4
HETATM    4  C7  VEY A 405       9.083  -1.596  22.426  1.00  0.00    -0.268 A  
HETATM    5  C12 VEY A 405      10.293  -1.700  21.741  1.00  0.00    -0.365 A  
HETATM    6  C8  VEY A 405       9.086  -1.659  23.818  1.00  0.00    -0.217 A  
HETATM    7  C9  VEY A 405      10.279  -1.804  24.507  1.00  0.00    -0.291 A  
HETATM    8  C11 VEY A 405      11.480  -1.841  22.441  1.00  0.00    -0.523 A  
HETATM    9  C10 VEY A 405      11.496  -1.885  23.834  1.00  0.00    -0.355 A  
BRANCH   9  10
HETATM   10  C13 VEY A 405      12.811  -1.955  24.623  1.00  0.00    -0.380 C  
HETATM   11  C16 VEY A 405      14.024  -2.201  23.721  1.00  0.00    -0.620 C  
HETATM   12  C14 VEY A 405      13.037  -0.631  25.358  1.00  0.00    -0.624 C  
HETATM   13  C15 VEY A 405      12.768  -3.087  25.662  1.00  0.00    -0.585 C  
ENDBRANCH   9  10
ENDBRANCH   1   4
BRANCH   1  14
HETATM   14  C3  VEY A 405       7.446  -0.013  21.415  1.00  0.00    -0.258 C  
BRANCH  14  15
HETATM   15  C17 VEY A 405       6.782   0.250  20.072  1.00  0.00    -0.368 A  
HETATM   16  C18 VEY A 405       7.356  -0.160  18.875  1.00  0.00    -0.528 A  
HETATM   17  N2  VEY A 405       6.885   0.163  17.665  1.00  0.00    -0.564 NA 
HETATM   18  C19 VEY A 405       5.782   0.918  17.619  1.00  0.00    -0.503 A  
HETATM   19  C20 VEY A 405       5.126   1.373  18.745  1.00  0.00    -0.606 A  
HETATM   20  C21 VEY A 405       5.636   1.028  19.982  1.00  0.00    -0.369 A  
ENDBRANCH  14  15
BRANCH  14  21
HETATM   21  C2  VEY A 405       8.531   1.031  21.726  1.00  0.00    -0.282 C  
HETATM   22  O   VEY A 405       9.428   1.263  20.922  1.00  0.00    -0.561 OA 
HETATM   23  N   VEY A 405       8.392   1.660  22.894  1.00  0.00    -0.203 N  
HETATM   24  H   VEY A 405       7.537   1.514  23.430  1.00  0.00     0.000 HD 
BRANCH  23  25
HETATM   25  C1  VEY A 405       9.415   2.549  23.435  1.00  0.00    -0.243 C  
HETATM   26  C   VEY A 405      10.648   1.788  23.848  1.00  0.00    -0.382 C  
ENDBRANCH  23  25
ENDBRANCH  14  21
ENDBRANCH   1  14
BRANCH   2  27
HETATM   27  C5  VEY A 405       7.603  -3.871  21.536  1.00  0.00     0.757 C  
HETATM   28  C6  VEY A 405       7.464  -4.637  20.257  1.00  0.00     3.987 C  
ENDBRANCH   2  27
TORSDOF 7
ENDMDL
