MODEL        1
REMARK THIS MODEL IS IDENTICAL TO THE INPUT LIGAND AND NOT FROM DOCKING
REMARK 921   NORMALIZED FREE ENERGY PREDICTED BY IDOCK:   -2.45 KCAL/MOL
REMARK 922        TOTAL FREE ENERGY PREDICTED BY IDOCK:   -2.74 KCAL/MOL
REMARK 923 INTER-LIGAND FREE ENERGY PREDICTED BY IDOCK:   -3.02 KCAL/MOL
REMARK 924 INTRA-LIGAND FREE ENERGY PREDICTED BY IDOCK:    0.28 KCAL/MOL
REMARK 927      BINDING AFFINITY PREDICTED BY RF-SCORE:    0.00 PKD
ROOT
HETATM    1  N1  S8B A 501       7.138   1.690  28.897  1.00  0.00    -0.259 N  
HETATM    2  O1  S8B A 501       4.938   1.152  28.804  1.00  0.00    -0.070 OA 
HETATM    3  C4  S8B A 501       6.029   1.314  28.258  1.00  0.00    -0.112 C  
HETATM    4  H1  S8B A 501       8.037   1.446  28.482  1.00  0.00     0.000 HD 
ENDROOT
BRANCH   1   5
HETATM    5  C2  S8B A 501       7.140   2.433  30.159  1.00  0.00    -0.115 C  
HETATM    6  C3  S8B A 501       8.327   3.372  30.199  1.00  0.00     0.162 C  
HETATM    7  C1  S8B A 501       5.833   3.175  30.346  1.00  0.00    -0.046 C  
ENDBRANCH   1   5
BRANCH   3   8
HETATM    8  C5  S8B A 501       6.186   1.103  26.772  1.00  0.00    -0.085 A  
HETATM    9  C9  S8B A 501       7.418   1.295  26.172  1.00  0.00    -0.109 A  
HETATM   10  C8  S8B A 501       7.530   1.094  24.809  1.00  0.00    -0.152 A  
HETATM   11  C7  S8B A 501       6.417   0.709  24.074  1.00  0.00    -0.141 A  
HETATM   12  N2  S8B A 501       5.094   0.733  26.094  1.00  0.00    -0.104 NA 
HETATM   13  C6  S8B A 501       5.214   0.542  24.774  1.00  0.00     0.593 A  
BRANCH  11  14
HETATM   14  C10 S8B A 501       6.474   0.487  22.657  1.00  0.00    -0.181 C  
HETATM   15  C11 S8B A 501       6.489   0.365  21.468  1.00  0.00    -0.279 C  
BRANCH  15  16
HETATM   16  C12 S8B A 501       6.517   0.282  20.035  1.00  0.00    -0.329 A  
HETATM   17  C13 S8B A 501       7.601  -0.276  19.369  1.00  0.00    -0.436 A  
HETATM   18  C14 S8B A 501       7.581  -0.334  17.985  1.00  0.00     0.007 A  
HETATM   19  N3  S8B A 501       6.571   0.120  17.238  1.00  0.00    -0.485 NA 
HETATM   20  C15 S8B A 501       5.534   0.655  17.888  1.00  0.00    -0.361 A  
HETATM   21  C16 S8B A 501       5.460   0.758  19.268  1.00  0.00    -0.516 A  
ENDBRANCH  15  16
ENDBRANCH  11  14
ENDBRANCH   3   8
TORSDOF 4
ENDMDL
