REMARK 14 active torsions:
REMARK  status: ('A' for Active; 'I' for Inactive)
REMARK    1  A    between atoms: CBN_1  and  CBB_7
REMARK    2  A    between atoms: NAD_9  and  CAY_11
REMARK    3  A    between atoms: CAY_11  and  CAX_12
REMARK    4  A    between atoms: CAY_11  and  CBH_49
REMARK    5  A    between atoms: NAC_13  and  CAW_16
REMARK    6  A    between atoms: CAW_16  and  CAZ_17
REMARK    7  A    between atoms: CAW_16  and  CAV_21
REMARK    8  A    between atoms: CA_28  and  C_31
REMARK    9  A    between atoms: NAE_33  and  CAH_35
REMARK   10  A    between atoms: CAH_35  and  CAI_36
REMARK   11  A    between atoms: CAH_35  and  CAJ_46
REMARK   12  A    between atoms: CAI_36  and  CAM_39
REMARK   13  A    between atoms: CAJ_46  and  CAK_47
REMARK   14  A    between atoms: NAA_41  and  CAN_43
ROOT
HETATM    1  CBN SV6 A 401     -18.070 -11.336 -35.041  1.00  0.00     0.140 A
HETATM    2  NAF SV6 A 401     -18.771 -11.522 -36.202  1.00  0.00    -0.248 NA
HETATM    3  CBQ SV6 A 401     -17.348 -12.409 -34.512  1.00  0.00     0.143 A
HETATM    4  CBO SV6 A 401     -18.749 -12.702 -36.859  1.00  0.00     0.131 A
HETATM    5  NAG SV6 A 401     -17.332 -13.579 -35.176  1.00  0.00    -0.259 NA
HETATM    6  CBP SV6 A 401     -18.015 -13.757 -36.329  1.00  0.00     0.130 A
ENDROOT
BRANCH   1   7
HETATM    7  CBB SV6 A 401     -18.114  -9.994 -34.327  1.00  0.00     0.252 C
HETATM    8  HAD SV6 A 401     -19.188  -9.102 -35.779  1.00  0.00     0.132 HD
HETATM    9  NAD SV6 A 401     -18.746  -9.003 -34.865  1.00  0.00    -0.241 N
HETATM   10  OBW SV6 A 401     -17.526  -9.879 -33.237  1.00  0.00    -0.272 OA
BRANCH   9  11
HETATM   11  CAY SV6 A 401     -18.814  -7.735 -34.135  1.00  0.00     0.147 C
BRANCH  11  12
HETATM   12  CAX SV6 A 401     -19.872  -7.891 -33.086  1.00  0.00     0.219 C
HETATM   13  NAC SV6 A 401     -19.593  -7.470 -31.902  1.00  0.00    -0.245 N
HETATM   14  OBU SV6 A 401     -20.909  -8.465 -33.385  1.00  0.00    -0.278 OA
HETATM   15  HAC SV6 A 401     -18.671  -7.077 -31.714  1.00  0.00     0.131 HD
BRANCH  13  16
HETATM   16  CAW SV6 A 401     -20.572  -7.546 -30.825  1.00  0.00     0.149 C
BRANCH  16  17
HETATM   17  CAZ SV6 A 401     -20.283  -8.693 -29.838  1.00  0.00    -0.014 C
HETATM   18  CBA SV6 A 401     -21.440  -8.758 -28.811  1.00  0.00     0.012 C
HETATM   19  CBD SV6 A 401     -20.249  -9.993 -30.658  1.00  0.00     0.012 C
HETATM   20  CBC SV6 A 401     -18.898  -8.563 -29.173  1.00  0.00     0.012 C
ENDBRANCH  16  17
BRANCH  16  21
HETATM   21  CAV SV6 A 401     -20.710  -6.164 -30.188  1.00  0.00     0.222 C
HETATM   22  N   SV6 A 401     -21.924  -5.596 -30.236  1.00  0.00    -0.231 N
HETATM   23  OBT SV6 A 401     -19.689  -5.659 -29.665  1.00  0.00    -0.278 OA
HETATM   24  CD1 SV6 A 401     -23.104  -6.059 -30.952  1.00  0.00     0.097 C
HETATM   25  CG  SV6 A 401     -23.842  -4.762 -31.251  1.00  0.00     0.009 C
HETATM   26  CB  SV6 A 401     -23.560  -3.814 -30.088  1.00  0.00     0.020 C
HETATM   27  CBE SV6 A 401     -23.443  -2.444 -30.709  1.00  0.00     0.006 C
HETATM   28  CA  SV6 A 401     -22.276  -4.353 -29.497  1.00  0.00     0.150 C
HETATM   29  CD2 SV6 A 401     -23.296  -4.138 -32.530  1.00  0.00     0.005 C
HETATM   30  CBF SV6 A 401     -23.084  -2.670 -32.197  1.00  0.00     0.001 C
BRANCH  28  31
HETATM   31  C   SV6 A 401     -22.382  -4.661 -28.053  1.00  0.00     0.219 C
HETATM   32  O   SV6 A 401     -23.202  -5.535 -27.752  1.00  0.00    -0.278 OA
HETATM   33  NAE SV6 A 401     -21.604  -4.026 -27.263  1.00  0.00    -0.251 N
HETATM   34  HAE SV6 A 401     -20.954  -3.326 -27.620  1.00  0.00     0.131 HD
BRANCH  33  35
HETATM   35  CAH SV6 A 401     -21.672  -4.339 -25.785  1.00  0.00     0.098 C
BRANCH  35  36
HETATM   36  CAI SV6 A 401     -22.182  -3.193 -24.932  1.00  0.00     0.214 C
HETATM   37  HBR SV6 A 401     -23.700  -1.891 -24.950  1.00  0.00     0.210 HD
HETATM   38  OBR SV6 A 401     -23.381  -2.609 -25.484  1.00  0.00    -0.381 OA
BRANCH  36  39
HETATM   39  CAM SV6 A 401     -22.510  -3.630 -23.506  1.00  0.00     0.231 C
HETATM   40  HAA SV6 A 401     -24.416  -3.950 -23.967  1.00  0.00     0.131 HD
HETATM   41  NAA SV6 A 401     -23.733  -3.973 -23.209  1.00  0.00    -0.253 N
HETATM   42  OBS SV6 A 401     -21.601  -3.574 -22.706  1.00  0.00    -0.277 OA
BRANCH  41  43
HETATM   43  CAN SV6 A 401     -24.218  -4.387 -21.894  1.00  0.00     0.061 C
HETATM   44  CAP SV6 A 401     -24.138  -5.903 -21.687  1.00  0.00     0.020 C
HETATM   45  CAO SV6 A 401     -25.488  -5.238 -21.864  1.00  0.00     0.020 C
ENDBRANCH  41  43
ENDBRANCH  36  39
ENDBRANCH  35  36
BRANCH  35  46
HETATM   46  CAJ SV6 A 401     -20.253  -4.748 -25.419  1.00  0.00     0.022 C
BRANCH  46  47
HETATM   47  CAK SV6 A 401     -20.149  -6.215 -25.844  1.00  0.00    -0.002 C
HETATM   48  CAL SV6 A 401     -18.755  -6.780 -25.650  1.00  0.00     0.004 C
ENDBRANCH  46  47
ENDBRANCH  35  46
ENDBRANCH  33  35
ENDBRANCH  28  31
ENDBRANCH  16  21
ENDBRANCH  13  16
ENDBRANCH  11  12
BRANCH  11  49
HETATM   49  CBH SV6 A 401     -19.138  -6.631 -35.142  1.00  0.00     0.015 C
HETATM   50  CBI SV6 A 401     -17.927  -6.441 -36.035  1.00  0.00     0.005 C
HETATM   51  CBJ SV6 A 401     -18.049  -5.249 -36.985  1.00  0.00     0.000 C
HETATM   52  CBM SV6 A 401     -19.526  -5.340 -34.406  1.00  0.00     0.005 C
HETATM   53  CBK SV6 A 401     -18.479  -3.970 -36.213  1.00  0.00     0.000 C
HETATM   54  CBL SV6 A 401     -19.750  -4.221 -35.410  1.00  0.00     0.000 C
ENDBRANCH  11  49
ENDBRANCH   9  11
ENDBRANCH   1   7
TORSDOF 14
