REMARK 10 active torsions:
REMARK  status: ('A' for Active; 'I' for Inactive)
REMARK    1  A    between atoms: C7_1  and  O8_2
REMARK    2  A    between atoms: C7_1  and  C1_27
REMARK    3  A    between atoms: O8_2  and  C9_3
REMARK    4  A    between atoms: N11_4  and  C12_7
REMARK    5  A    between atoms: C12_7  and  C13_8
REMARK    6  A    between atoms: C12_7  and  C17_12
REMARK    7  A    between atoms: N19_14  and  C20_16
REMARK    8  A    between atoms: C20_16  and  C21_17
REMARK    9  A    between atoms: C20_16  and  C24_20
REMARK   10  A    between atoms: C24_20  and  C25_21
ROOT
HETATM    1  C7  K36 A 401     -21.460 -30.163   1.311  1.00  0.00     0.207 C
ENDROOT
BRANCH   1   2
HETATM    2  O8  K36 A 401     -21.440 -28.879   0.635  1.00  0.00    -0.298 OA
BRANCH   2   3
HETATM    3  C9  K36 A 401     -20.761 -27.892   1.238  1.00  0.00     0.339 C
HETATM    4  N11 K36 A 401     -20.800 -26.773   0.494  1.00  0.00    -0.222 N
HETATM    5  H11 K36 A 401     -21.252 -26.792  -0.420  1.00  0.00     0.133 HD
HETATM    6  O10 K36 A 401     -20.187 -28.004   2.297  1.00  0.00    -0.245 OA
BRANCH   4   7
HETATM    7  C12 K36 A 401     -20.207 -25.537   0.975  1.00  0.00     0.146 C
BRANCH   7   8
HETATM    8  C13 K36 A 401     -20.270 -24.459  -0.105  1.00  0.00     0.031 C
HETATM    9  C16 K36 A 401     -18.082 -25.051  -1.185  1.00  0.00     0.007 C
HETATM   10  C14 K36 A 401     -19.564 -24.803  -1.416  1.00  0.00    -0.015 C
HETATM   11  C15 K36 A 401     -19.766 -23.702  -2.445  1.00  0.00     0.007 C
ENDBRANCH   7   8
BRANCH   7  12
HETATM   12  C17 K36 A 401     -20.870 -25.039   2.260  1.00  0.00     0.218 C
HETATM   13  H19 K36 A 401     -19.054 -24.522   3.010  1.00  0.00     0.131 HD
HETATM   14  N19 K36 A 401     -20.058 -24.530   3.192  1.00  0.00    -0.252 N
HETATM   15  O18 K36 A 401     -22.089 -25.122   2.402  1.00  0.00    -0.278 OA
BRANCH  14  16
HETATM   16  C20 K36 A 401     -20.539 -23.983   4.462  1.00  0.00     0.087 C
BRANCH  16  17
HETATM   17  C21 K36 A 401     -20.159 -22.515   4.555  1.00  0.00     0.174 C
HETATM   18  H22 K36 A 401     -20.411 -20.995   5.789  1.00  0.00     0.209 HD
HETATM   19  O22 K36 A 401     -20.649 -21.913   5.731  1.00  0.00    -0.393 OA
ENDBRANCH  16  17
BRANCH  16  20
HETATM   20  C24 K36 A 401     -19.966 -24.786   5.634  1.00  0.00     0.034 C
BRANCH  20  21
HETATM   21  C25 K36 A 401     -20.495 -26.219   5.638  1.00  0.00     0.082 C
HETATM   22  C26 K36 A 401     -21.973 -26.399   5.947  1.00  0.00     0.036 C
HETATM   23  C27 K36 A 401     -22.054 -27.842   6.419  1.00  0.00     0.146 C
HETATM   24  N28 K36 A 401     -20.744 -28.043   7.029  1.00  0.00    -0.250 NA
HETATM   25  C29 K36 A 401     -19.843 -27.142   6.651  1.00  0.00     0.245 C
HETATM   26  O30 K36 A 401     -18.666 -27.082   7.042  1.00  0.00    -0.271 OA
ENDBRANCH  20  21
ENDBRANCH  16  20
ENDBRANCH  14  16
ENDBRANCH   7  12
ENDBRANCH   4   7
ENDBRANCH   2   3
ENDBRANCH   1   2
BRANCH   1  27
HETATM   27  C1  K36 A 401     -22.375 -30.146   2.503  1.00  0.00    -0.021 A
HETATM   28  C2  K36 A 401     -23.380 -29.202   2.615  1.00  0.00     0.006 A
HETATM   29  C6  K36 A 401     -22.230 -31.084   3.510  1.00  0.00     0.006 A
HETATM   30  C5  K36 A 401     -23.075 -31.077   4.609  1.00  0.00     0.000 A
HETATM   31  C3  K36 A 401     -24.222 -29.194   3.716  1.00  0.00     0.000 A
HETATM   32  C4  K36 A 401     -24.069 -30.131   4.709  1.00  0.00     0.000 A
ENDBRANCH   1  27
TORSDOF 10
