MODEL        1
REMARK THIS MODEL IS IDENTICAL TO THE INPUT LIGAND AND NOT FROM DOCKING
REMARK 921   NORMALIZED FREE ENERGY PREDICTED BY IDOCK:    1.72 KCAL/MOL
REMARK 922        TOTAL FREE ENERGY PREDICTED BY IDOCK:    1.60 KCAL/MOL
REMARK 923 INTER-LIGAND FREE ENERGY PREDICTED BY IDOCK:    1.82 KCAL/MOL
REMARK 924 INTRA-LIGAND FREE ENERGY PREDICTED BY IDOCK:   -0.23 KCAL/MOL
REMARK 927      BINDING AFFINITY PREDICTED BY RF-SCORE:    0.00 PKD
ROOT
HETATM    1  N1  T7S A 404       6.296  -3.437  26.708  1.00  0.00    -0.179 N  
HETATM    2  C8  T7S A 404       7.691  -3.790  27.000  1.00  0.00    -0.057 C  
HETATM    3  C7  T7S A 404       5.757  -3.294  25.451  1.00  0.00    -0.183 C  
HETATM    4  C9  T7S A 404       7.769  -5.006  27.895  1.00  0.00    -0.346 C  
HETATM    5  C12 T7S A 404       5.513  -3.188  27.927  1.00  0.00    -0.139 C  
HETATM    6  O1  T7S A 404       4.674  -2.731  25.310  1.00  0.00     0.020 OA 
HETATM    7  C10 T7S A 404       7.046  -4.732  29.199  1.00  0.00    -0.260 C  
HETATM    8  C11 T7S A 404       5.606  -4.343  28.910  1.00  0.00    -0.164 C  
ENDROOT
BRANCH   3   9
HETATM    9  C4  T7S A 404       6.467  -3.847  24.235  1.00  0.00    -0.278 C  
HETATM   10  C5  T7S A 404       5.558  -4.775  23.446  1.00  0.00    -0.339 C  
HETATM   11  N   T7S A 404       6.769  -4.256  21.403  1.00  0.00    -0.253 N  
HETATM   12  C6  T7S A 404       6.299  -5.348  22.263  1.00  0.00    -0.335 C  
HETATM   13  C2  T7S A 404       7.689  -3.349  22.104  1.00  0.00    -0.325 C  
HETATM   14  C1  T7S A 404       6.315  -4.136  20.132  1.00  0.00     1.189 C  
HETATM   15  O   T7S A 404       5.485  -4.904  19.659  1.00  0.00    -0.503 OA 
HETATM   16  C3  T7S A 404       7.003  -2.745  23.313  1.00  0.00    -0.216 C  
HETATM   17  C   T7S A 404       6.857  -3.021  19.275  1.00  0.00     4.192 C  
ENDBRANCH   3   9
TORSDOF 1
ENDMDL
