MODEL        1
REMARK THIS MODEL IS IDENTICAL TO THE INPUT LIGAND AND NOT FROM DOCKING
REMARK 921   NORMALIZED FREE ENERGY PREDICTED BY IDOCK:   -2.51 KCAL/MOL
REMARK 922        TOTAL FREE ENERGY PREDICTED BY IDOCK:   -5.77 KCAL/MOL
REMARK 923 INTER-LIGAND FREE ENERGY PREDICTED BY IDOCK:   -3.98 KCAL/MOL
REMARK 924 INTRA-LIGAND FREE ENERGY PREDICTED BY IDOCK:   -1.79 KCAL/MOL
REMARK 927      BINDING AFFINITY PREDICTED BY RF-SCORE:    0.00 PKD
ROOT
HETATM    1  C02 V7G A 401       7.679  30.320  20.069  1.00  0.00     4.154 C  
HETATM    2  O01 V7G A 401       8.375  30.857  18.987  1.00  0.00     0.480 OA 
HETATM    3  H01 V7G A 401       8.206  31.784  18.864  1.00  0.00     0.000 HD 
ENDROOT
BRANCH   1   4
HETATM    4  C03 V7G A 401       8.127  31.052  21.340  1.00  0.00     1.182 A  
HETATM    5  N04 V7G A 401       9.458  31.098  21.671  1.00  0.00    -0.326 NA 
HETATM    6  C06 V7G A 401      10.850  32.065  23.505  1.00  0.00    -0.330 A  
HETATM    7  S11 V7G A 401       7.156  31.830  22.490  1.00  0.00     1.483 SA 
HETATM    8  C09 V7G A 401       8.499  33.039  24.685  1.00  0.00    -0.368 A  
HETATM    9  C07 V7G A 401      10.915  32.783  24.691  1.00  0.00    -0.353 A  
HETATM   10  C05 V7G A 401       9.591  31.843  22.900  1.00  0.00    -0.276 A  
HETATM   11  C10 V7G A 401       8.420  32.313  23.483  1.00  0.00    -0.329 A  
HETATM   12  C08 V7G A 401       9.743  33.263  25.283  1.00  0.00    -0.343 A  
ENDBRANCH   1   4
BRANCH   1  13
HETATM   13  C12 V7G A 401       7.952  28.825  20.268  1.00  0.00     0.804 C  
BRANCH  13  14
HETATM   14  N20 V7G A 401       7.182  28.415  21.416  1.00  0.00     0.063 N  
HETATM   15  H20 V7G A 401       6.169  28.531  21.404  1.00  0.00     0.000 HD 
HETATM   16  O41 V7G A 401       8.985  27.669  22.571  1.00  0.00    -0.224 OA 
HETATM   17  C21 V7G A 401       7.806  27.850  22.570  1.00  0.00    -0.302 C  
BRANCH  17  18
HETATM   18  C22 V7G A 401       6.918  27.481  23.745  1.00  0.00    -0.321 C  
BRANCH  18  19
HETATM   19  N27 V7G A 401       7.347  26.243  24.343  1.00  0.00    -0.505 N  
HETATM   20  H27 V7G A 401       7.805  26.236  25.254  1.00  0.00     0.000 HD 
HETATM   21  O40 V7G A 401       6.624  25.063  22.538  1.00  0.00    -0.586 OA 
HETATM   22  C28 V7G A 401       7.117  25.023  23.631  1.00  0.00    -0.403 C  
BRANCH  22  23
HETATM   23  C29 V7G A 401       7.546  23.716  24.246  1.00  0.00    -0.323 A  
HETATM   24  N39 V7G A 401       7.358  22.505  23.728  1.00  0.00    -0.049 NA 
HETATM   25  H39 V7G A 401       6.894  22.312  22.841  1.00  0.00     0.000 HD 
HETATM   26  C38 V7G A 401       7.882  21.558  24.566  1.00  0.00    -0.253 A  
HETATM   27  C37 V7G A 401       7.938  20.150  24.460  1.00  0.00    -0.497 A  
HETATM   28  C36 V7G A 401       8.544  19.416  25.482  1.00  0.00    -0.377 A  
HETATM   29  C35 V7G A 401       9.092  20.064  26.590  1.00  0.00    -0.339 A  
HETATM   30  C32 V7G A 401       9.037  21.444  26.694  1.00  0.00    -0.323 A  
HETATM   31  C31 V7G A 401       8.409  22.191  25.661  1.00  0.00    -0.329 A  
HETATM   32  C30 V7G A 401       8.205  23.577  25.465  1.00  0.00    -0.209 A  
BRANCH  30  33
HETATM   33  O33 V7G A 401       9.550  22.161  27.784  1.00  0.00    -0.343 OA 
HETATM   34  C34 V7G A 401      10.117  21.398  28.814  1.00  0.00    -0.208 C  
ENDBRANCH  30  33
ENDBRANCH  22  23
ENDBRANCH  18  19
BRANCH  18  35
HETATM   35  C23 V7G A 401       6.941  28.611  24.786  1.00  0.00    -0.324 C  
HETATM   36  C25 V7G A 401       6.244  29.389  27.073  1.00  0.00    -0.588 C  
HETATM   37  C26 V7G A 401       4.544  28.461  25.508  1.00  0.00    -0.686 C  
HETATM   38  C24 V7G A 401       6.006  28.375  25.958  1.00  0.00    -0.417 C  
ENDBRANCH  18  35
ENDBRANCH  17  18
ENDBRANCH  13  14
BRANCH  13  39
HETATM   39  C13 V7G A 401       7.518  28.032  19.056  1.00  0.00     0.049 C  
BRANCH  39  40
HETATM   40  C14 V7G A 401       8.129  26.583  19.073  1.00  0.00    -0.378 C  
HETATM   41  O19 V7G A 401       6.523  25.890  17.271  1.00  0.00    -0.607 OA 
HETATM   42  C15 V7G A 401       9.404  26.516  19.019  1.00  0.00    -0.381 C  
HETATM   43  C16 V7G A 401       9.752  25.060  18.198  1.00  0.00    -0.386 C  
HETATM   44  N17 V7G A 401       8.755  24.853  17.332  1.00  0.00    -0.142 NA 
HETATM   45  C18 V7G A 401       7.582  25.792  17.777  1.00  0.00    -0.370 C  
ENDBRANCH  39  40
ENDBRANCH  13  39
ENDBRANCH   1  13
TORSDOF 10
ENDMDL
