REMARK  2 active torsions:
REMARK  status: ('A' for Active; 'I' for Inactive)
REMARK    1  A    between atoms: N1_1  and  C4_5
REMARK    2  A    between atoms: C7_3  and  C8_14
ROOT
HETATM    1  N1  T7D A 404       5.880  -2.692  25.305  1.00  0.00    -0.251 N
HETATM    2  O1  T7D A 404       7.730  -2.757  26.595  1.00  0.00    -0.274 OA
HETATM    3  C7  T7D A 404       6.683  -2.194  26.275  1.00  0.00     0.232 C
HETATM    4  H1  T7D A 404       4.875  -2.529  25.360  1.00  0.00     0.131 HD
ENDROOT
BRANCH   1   5
HETATM    5  C4  T7D A 404       6.419  -3.460  24.177  1.00  0.00     0.064 C
HETATM    6  C5  T7D A 404       7.037  -2.520  23.152  1.00  0.00     0.035 C
HETATM    7  C   T7D A 404       6.897  -2.996  19.229  1.00  0.00     0.105 C
HETATM    8  C6  T7D A 404       7.659  -3.327  22.024  1.00  0.00     0.094 C
HETATM    9  C3  T7D A 404       5.361  -4.321  23.499  1.00  0.00     0.035 C
HETATM   10  N   T7D A 404       6.628  -4.154  21.388  1.00  0.00    -0.245 N
HETATM   11  O   T7D A 404       5.503  -4.874  19.569  1.00  0.00    -0.280 OA
HETATM   12  C1  T7D A 404       6.290  -4.087  20.078  1.00  0.00     0.200 C
HETATM   13  C2  T7D A 404       5.971  -5.079  22.324  1.00  0.00     0.094 C
ENDBRANCH   1   5
BRANCH   3  14
HETATM   14  C8  T7D A 404       6.301  -0.894  26.915  1.00  0.00     0.033 A
HETATM   15  C12 T7D A 404       5.066   1.170  27.043  1.00  0.00     0.001 A
HETATM   16  C13 T7D A 404       5.355  -0.019  26.391  1.00  0.00     0.013 A
HETATM   17  C11 T7D A 404       5.716   1.503  28.210  1.00  0.00     0.000 A
HETATM   18  C10 T7D A 404       6.660   0.650  28.734  1.00  0.00     0.001 A
HETATM   19  C9  T7D A 404       6.956  -0.541  28.091  1.00  0.00     0.013 A
ENDBRANCH   3  14
TORSDOF 2
