MODEL        1
REMARK THIS MODEL IS IDENTICAL TO THE INPUT LIGAND AND NOT FROM DOCKING
REMARK 921   NORMALIZED FREE ENERGY PREDICTED BY IDOCK:    0.75 KCAL/MOL
REMARK 922        TOTAL FREE ENERGY PREDICTED BY IDOCK:    0.96 KCAL/MOL
REMARK 923 INTER-LIGAND FREE ENERGY PREDICTED BY IDOCK:    0.84 KCAL/MOL
REMARK 924 INTRA-LIGAND FREE ENERGY PREDICTED BY IDOCK:    0.12 KCAL/MOL
REMARK 927      BINDING AFFINITY PREDICTED BY RF-SCORE:    0.00 PKD
ROOT
HETATM    1  N1  T2G A 404       6.768  -2.562  20.791  1.00  0.00    -0.136 N  
HETATM    2  C11 T2G A 404       6.462  -3.201  19.639  1.00  0.00     1.002 C  
HETATM    3  C8  T2G A 404       6.345  -3.060  22.097  1.00  0.00    -0.313 C  
HETATM    4  C7  T2G A 404       7.562  -3.392  22.927  1.00  0.00    -0.280 C  
HETATM    5  C12 T2G A 404       7.076  -2.685  18.367  1.00  0.00     4.611 C  
HETATM    6  O   T2G A 404       5.757  -4.204  19.612  1.00  0.00    -0.819 OA 
HETATM    7  N   T2G A 404       8.425  -2.220  23.083  1.00  0.00    -0.223 NA 
HETATM    8  C9  T2G A 404       7.585  -1.361  20.939  1.00  0.00    -0.205 C  
HETATM    9  C10 T2G A 404       8.803  -1.681  21.772  1.00  0.00    -0.356 C  
ENDROOT
BRANCH   7  10
HETATM   10  C6  T2G A 404       9.612  -2.559  23.872  1.00  0.00    -0.367 C  
BRANCH  10  11
HETATM   11  C5  T2G A 404      10.701  -1.530  23.721  1.00  0.00    -0.400 A  
HETATM   12  C4  T2G A 404      11.876  -1.826  23.050  1.00  0.00    -0.271 A  
HETATM   13  C3  T2G A 404      12.853  -0.860  22.896  1.00  0.00    -0.101 A  
HETATM   14  C2  T2G A 404      12.650   0.412  23.401  1.00  0.00    -0.434 A  
HETATM   15  C1  T2G A 404      11.474   0.746  24.056  1.00  0.00    -0.412 A  
HETATM   16  C   T2G A 404      11.246   2.131  24.590  1.00  0.00    -0.124 C  
HETATM   17  C13 T2G A 404      10.508  -0.238  24.198  1.00  0.00    -0.338 A  
ENDBRANCH  10  11
ENDBRANCH   7  10
TORSDOF 2
ENDMDL
