MODEL        1
REMARK THIS MODEL IS IDENTICAL TO THE INPUT LIGAND AND NOT FROM DOCKING
REMARK 921   NORMALIZED FREE ENERGY PREDICTED BY IDOCK:    1.87 KCAL/MOL
REMARK 922        TOTAL FREE ENERGY PREDICTED BY IDOCK:    1.79 KCAL/MOL
REMARK 923 INTER-LIGAND FREE ENERGY PREDICTED BY IDOCK:    2.09 KCAL/MOL
REMARK 924 INTRA-LIGAND FREE ENERGY PREDICTED BY IDOCK:   -0.29 KCAL/MOL
REMARK 927      BINDING AFFINITY PREDICTED BY RF-SCORE:    0.00 PKD
ROOT
HETATM    1  N1  T8D A 405       5.585  -5.395  24.403  1.00  0.00    -0.272 N  
HETATM    2  C1  T8D A 405       6.530  -4.578  20.567  1.00  0.00     0.899 C  
HETATM    3  C3  T8D A 405       4.647  -5.633  23.292  1.00  0.00    -0.278 C  
HETATM    4  C5  T8D A 405       7.402  -4.982  22.866  1.00  0.00    -0.382 C  
HETATM    5  C4  T8D A 405       6.653  -4.443  24.055  1.00  0.00    -0.280 C  
HETATM    6  C2  T8D A 405       5.419  -6.155  22.112  1.00  0.00    -0.256 C  
HETATM    7  O   T8D A 405       5.657  -4.736  19.721  1.00  0.00    -0.411 OA 
HETATM    8  N   T8D A 405       6.472  -5.207  21.757  1.00  0.00    -0.352 N  
HETATM    9  C   T8D A 405       7.675  -3.614  20.327  1.00  0.00     4.044 C  
ENDROOT
BRANCH   1  10
HETATM   10  S   T8D A 405       4.975  -5.329  25.913  1.00  0.00    -0.197 S  
HETATM   11  O2  T8D A 405       6.094  -5.216  26.795  1.00  0.00    -0.233 OA 
HETATM   12  O1  T8D A 405       4.061  -6.421  26.044  1.00  0.00    -0.175 OA 
BRANCH  10  13
HETATM   13  C6  T8D A 405       4.046  -3.869  26.037  1.00  0.00    -0.119 A  
HETATM   14  C8  T8D A 405       3.571  -1.615  26.049  1.00  0.00    -0.063 A  
HETATM   15  C7  T8D A 405       4.545  -2.615  26.298  1.00  0.00    -0.114 A  
HETATM   16  C9  T8D A 405       2.316  -2.177  25.845  1.00  0.00     0.112 A  
HETATM   17  S1  T8D A 405       2.350  -3.892  25.796  1.00  0.00    -0.123 SA 
HETATM   18 CL   T8D A 405       0.831  -1.345  25.654  1.00  0.00     0.287 Cl 
ENDBRANCH  10  13
ENDBRANCH   1  10
TORSDOF 2
ENDMDL
