MODEL        1
REMARK THIS MODEL IS IDENTICAL TO THE INPUT LIGAND AND NOT FROM DOCKING
REMARK 921   NORMALIZED FREE ENERGY PREDICTED BY IDOCK:   -1.11 KCAL/MOL
REMARK 922        TOTAL FREE ENERGY PREDICTED BY IDOCK:   -2.45 KCAL/MOL
REMARK 923 INTER-LIGAND FREE ENERGY PREDICTED BY IDOCK:   -1.83 KCAL/MOL
REMARK 924 INTRA-LIGAND FREE ENERGY PREDICTED BY IDOCK:   -0.61 KCAL/MOL
REMARK 927      BINDING AFFINITY PREDICTED BY RF-SCORE:    0.00 PKD
ROOT
HETATM    1  N1  VEG A1001       7.577  -1.423  21.661  1.00  0.00    -0.292 N  
HETATM    2  O3  VEG A1001       5.613  -2.523  21.501  1.00  0.00    -0.664 OA 
HETATM    3  C7  VEG A1001       6.784  -2.423  21.171  1.00  0.00     0.250 C  
ENDROOT
BRANCH   1   4
HETATM    4  C6  VEG A1001       7.160  -0.014  21.437  1.00  0.00    -0.284 C  
BRANCH   4   5
HETATM    5  C5  VEG A1001       8.237   1.019  21.806  1.00  0.00    -0.262 C  
HETATM    6  O2  VEG A1001       9.105   1.336  20.995  1.00  0.00    -0.635 OA 
HETATM    7  N   VEG A1001       8.134   1.565  23.018  1.00  0.00    -0.205 N  
HETATM    8  H   VEG A1001       7.478   1.155  23.683  1.00  0.00     0.000 HD 
BRANCH   7   9
HETATM    9  C4  VEG A1001       8.917   2.720  23.435  1.00  0.00    -0.234 C  
BRANCH   9  10
HETATM   10  C3  VEG A1001      10.309   2.345  23.902  1.00  0.00    -0.345 C  
BRANCH  10  11
HETATM   11  C2  VEG A1001      11.335   2.793  22.906  1.00  0.00    -0.318 C  
HETATM   12  O1  VEG A1001      11.289   2.546  21.729  1.00  0.00    -0.059 OA 
BRANCH  11  13
HETATM   13  O   VEG A1001      12.296   3.523  23.474  1.00  0.00    -0.383 OA 
BRANCH  13  14
HETATM   14  C1  VEG A1001      13.384   3.954  22.601  1.00  0.00    -0.337 C  
HETATM   15  C   VEG A1001      13.418   5.400  22.571  1.00  0.00    -0.538 C  
ENDBRANCH  13  14
ENDBRANCH  11  13
ENDBRANCH  10  11
ENDBRANCH   9  10
ENDBRANCH   7   9
ENDBRANCH   4   5
BRANCH   4  16
HETATM   16  C20 VEG A1001       6.509   0.295  20.095  1.00  0.00    -0.360 A  
HETATM   17  N2  VEG A1001       6.658   0.364  17.688  1.00  0.00    -0.621 NA 
HETATM   18  C21 VEG A1001       7.123  -0.009  18.886  1.00  0.00    -0.529 A  
HETATM   19  C23 VEG A1001       4.824   1.420  18.806  1.00  0.00    -0.603 A  
HETATM   20  C24 VEG A1001       5.328   1.021  20.030  1.00  0.00    -0.346 A  
HETATM   21  C22 VEG A1001       5.523   1.070  17.665  1.00  0.00    -0.432 A  
ENDBRANCH   4  16
ENDBRANCH   1   4
BRANCH   1  22
HETATM   22  C10 VEG A1001       8.816  -1.689  22.346  1.00  0.00    -0.304 A  
HETATM   23  C13 VEG A1001      11.263  -1.848  23.723  1.00  0.00    -0.420 A  
HETATM   24  C12 VEG A1001      11.223  -1.743  22.334  1.00  0.00    -0.417 A  
HETATM   25  C14 VEG A1001      10.052  -1.907  24.409  1.00  0.00    -0.269 A  
HETATM   26  C11 VEG A1001      10.021  -1.672  21.651  1.00  0.00    -0.176 A  
HETATM   27  C15 VEG A1001       8.842  -1.831  23.736  1.00  0.00    -0.219 A  
BRANCH  23  28
HETATM   28  C16 VEG A1001      12.591  -1.830  24.493  1.00  0.00    -0.406 C  
HETATM   29  C17 VEG A1001      12.733  -0.502  25.235  1.00  0.00    -0.593 C  
HETATM   30  C18 VEG A1001      13.788  -1.979  23.556  1.00  0.00    -0.605 C  
HETATM   31  C19 VEG A1001      12.656  -2.970  25.521  1.00  0.00    -0.560 C  
ENDBRANCH  23  28
ENDBRANCH   1  22
BRANCH   3  32
HETATM   32  C8  VEG A1001       7.310  -3.237  20.006  1.00  0.00     4.339 C  
HETATM   33  C9  VEG A1001       8.029  -4.495  20.414  1.00  0.00     4.998 C  
ENDBRANCH   3  32
TORSDOF 11
ENDMDL
