REMARK  2 active torsions:
REMARK  status: ('A' for Active; 'I' for Inactive)
REMARK    1  A    between atoms: N1_1  and  C4_10
REMARK    2  A    between atoms: C4_10  and  C5_11
ROOT
HETATM    1  N1  T84 A 405       8.730  -2.131  23.044  1.00  0.00    -0.296 NA
HETATM    2  C2  T84 A 405       6.588  -2.861  22.072  1.00  0.00     0.108 C
HETATM    3  C9  T84 A 405       9.116  -1.637  21.716  1.00  0.00     0.100 C
HETATM    4  C   T84 A 405       7.279  -2.474  18.309  1.00  0.00     0.105 C
HETATM    5  C10 T84 A 405       7.907  -1.225  20.911  1.00  0.00     0.108 C
HETATM    6  O   T84 A 405       5.774  -3.810  19.577  1.00  0.00    -0.280 OA
HETATM    7  N   T84 A 405       7.007  -2.363  20.765  1.00  0.00    -0.242 N
HETATM    8  C1  T84 A 405       6.624  -2.927  19.601  1.00  0.00     0.200 C
HETATM    9  C3  T84 A 405       7.799  -3.253  22.887  1.00  0.00     0.100 C
ENDROOT
BRANCH   1  10
HETATM   10  C4  T84 A 405       9.903  -2.543  23.817  1.00  0.00     0.120 C
BRANCH  10  11
HETATM   11  C5  T84 A 405      10.985  -1.494  23.815  1.00  0.00    -0.026 A
HETATM   12  C6  T84 A 405      12.087  -1.424  22.910  1.00  0.00     0.012 A
HETATM   13  C7  T84 A 405      12.798  -0.280  23.005  1.00  0.00     0.045 A
HETATM   14  S   T84 A 405      12.164   0.741  24.191  1.00  0.00    -0.105 SA
HETATM   15  C8  T84 A 405      11.020  -0.411  24.686  1.00  0.00     0.050 A
ENDBRANCH  10  11
ENDBRANCH   1  10
TORSDOF 2
