REMARK 14 active torsions:
REMARK  status: ('A' for Active; 'I' for Inactive)
REMARK    1  A    between atoms: CBN_1  and  CBB_7
REMARK    2  A    between atoms: NAD_9  and  CAY_11
REMARK    3  A    between atoms: CAY_11  and  CBH_12
REMARK    4  A    between atoms: CAY_11  and  CAX_18
REMARK    5  A    between atoms: NAC_20  and  CAW_22
REMARK    6  A    between atoms: CAW_22  and  CAV_23
REMARK    7  A    between atoms: CAW_22  and  CAZ_51
REMARK    8  A    between atoms: CA_29  and  C_33
REMARK    9  A    between atoms: NAE_35  and  CAH_37
REMARK   10  A    between atoms: CAH_37  and  CAJ_38
REMARK   11  A    between atoms: CAH_37  and  CAI_41
REMARK   12  A    between atoms: CAI_41  and  CAM_44
REMARK   13  A    between atoms: CAJ_38  and  CAK_39
REMARK   14  A    between atoms: NAA_46  and  CAN_48
ROOT
HETATM    1  CBN SV6 A 401      11.860   8.561  26.852  1.00  0.00     0.140 A
HETATM    2  CBQ SV6 A 401      12.251   7.570  27.726  1.00  0.00     0.143 A
HETATM    3  NAF SV6 A 401      11.776   9.829  27.236  1.00  0.00    -0.248 NA
HETATM    4  NAG SV6 A 401      12.605   7.891  28.960  1.00  0.00    -0.259 NA
HETATM    5  CBO SV6 A 401      12.125  10.154  28.484  1.00  0.00     0.131 A
HETATM    6  CBP SV6 A 401      12.547   9.162  29.351  1.00  0.00     0.130 A
ENDROOT
BRANCH   1   7
HETATM    7  CBB SV6 A 401      11.453   8.101  25.431  1.00  0.00     0.252 C
HETATM    8  HAD SV6 A 401      11.500   6.057  26.099  1.00  0.00     0.132 HD
HETATM    9  NAD SV6 A 401      11.295   6.661  25.303  1.00  0.00    -0.241 N
HETATM   10  OBW SV6 A 401      11.289   8.825  24.505  1.00  0.00    -0.272 OA
BRANCH   9  11
HETATM   11  CAY SV6 A 401      10.851   6.078  24.060  1.00  0.00     0.147 C
BRANCH  11  12
HETATM   12  CBH SV6 A 401      11.957   5.560  23.113  1.00  0.00     0.015 C
HETATM   13  CBJ SV6 A 401      13.940   6.118  21.661  1.00  0.00     0.000 C
HETATM   14  CBM SV6 A 401      12.714   4.422  23.807  1.00  0.00     0.005 C
HETATM   15  CBI SV6 A 401      12.886   6.711  22.617  1.00  0.00     0.005 C
HETATM   16  CBK SV6 A 401      14.794   5.059  22.404  1.00  0.00     0.000 C
HETATM   17  CBL SV6 A 401      13.954   3.912  23.009  1.00  0.00     0.000 C
ENDBRANCH  11  12
BRANCH  11  18
HETATM   18  CAX SV6 A 401      10.052   4.889  24.592  1.00  0.00     0.219 C
HETATM   19  HAC SV6 A 401       8.962   4.633  22.713  1.00  0.00     0.131 HD
HETATM   20  NAC SV6 A 401       9.102   4.278  23.659  1.00  0.00    -0.245 N
HETATM   21  OBU SV6 A 401      10.144   4.445  25.709  1.00  0.00    -0.278 OA
BRANCH  20  22
HETATM   22  CAW SV6 A 401       8.379   3.141  24.168  1.00  0.00     0.150 C
BRANCH  22  23
HETATM   23  CAV SV6 A 401       8.732   1.932  23.322  1.00  0.00     0.229 C
HETATM   24  CBF SV6 A 401      12.966   0.007  23.919  1.00  0.00     0.005 C
HETATM   25  CD1 SV6 A 401       9.717   0.664  25.293  1.00  0.00     0.050 C
HETATM   26  CBE SV6 A 401      12.289  -1.026  23.377  1.00  0.00     0.033 C
HETATM   27  OBT SV6 A 401       8.526   1.848  22.135  1.00  0.00    -0.277 OA
HETATM   28  N   SV6 A 401       9.373   0.792  24.018  1.00  0.00    -0.188 N
HETATM   29  CA  SV6 A 401       9.719  -0.426  23.337  1.00  0.00     0.087 C
HETATM   30  CD2 SV6 A 401      12.399   0.227  25.309  1.00  0.00     0.013 C
HETATM   31  CB  SV6 A 401      10.821  -1.148  24.218  1.00  0.00    -0.038 C
HETATM   32  CG  SV6 A 401      10.857  -0.298  25.501  1.00  0.00     0.051 C
BRANCH  29  33
HETATM   33  C   SV6 A 401       8.469  -1.169  23.198  1.00  0.00     0.243 C
HETATM   34  HAE SV6 A 401       8.464  -1.274  21.036  1.00  0.00     0.131 HD
HETATM   35  NAE SV6 A 401       7.949  -1.512  21.884  1.00  0.00    -0.247 N
HETATM   36  O   SV6 A 401       7.840  -1.458  24.169  1.00  0.00    -0.273 OA
BRANCH  35  37
HETATM   37  CAH SV6 A 401       6.666  -2.208  21.815  1.00  0.00     0.099 C
BRANCH  37  38
HETATM   38  CAJ SV6 A 401       5.824  -1.292  20.919  1.00  0.00     0.022 C
BRANCH  38  39
HETATM   39  CAK SV6 A 401       5.114  -0.285  21.864  1.00  0.00    -0.002 C
HETATM   40  CAL SV6 A 401       4.545   0.860  20.985  1.00  0.00     0.004 C
ENDBRANCH  38  39
ENDBRANCH  37  38
BRANCH  37  41
HETATM   41  CAI SV6 A 401       6.778  -3.621  21.237  1.00  0.00     0.214 C
HETATM   42  OBR SV6 A 401       7.664  -4.349  22.028  1.00  0.00    -0.381 OA
HETATM   43  HBR SV6 A 401       7.734  -5.226  21.669  1.00  0.00     0.210 HD
BRANCH  41  44
HETATM   44  CAM SV6 A 401       5.416  -4.323  21.239  1.00  0.00     0.231 C
HETATM   45  HAA SV6 A 401       5.896  -5.166  23.137  1.00  0.00     0.131 HD
HETATM   46  NAA SV6 A 401       5.170  -5.125  22.422  1.00  0.00    -0.253 N
HETATM   47  OBS SV6 A 401       4.632  -4.236  20.329  1.00  0.00    -0.277 OA
BRANCH  46  48
HETATM   48  CAN SV6 A 401       3.943  -5.874  22.642  1.00  0.00     0.061 C
HETATM   49  CAO SV6 A 401       3.543  -6.031  24.114  1.00  0.00     0.020 C
HETATM   50  CAP SV6 A 401       2.863  -4.975  23.239  1.00  0.00     0.020 C
ENDBRANCH  46  48
ENDBRANCH  41  44
ENDBRANCH  37  41
ENDBRANCH  35  37
ENDBRANCH  29  33
ENDBRANCH  22  23
BRANCH  22  51
HETATM   51  CAZ SV6 A 401       6.862   3.385  24.155  1.00  0.00    -0.014 C
HETATM   52  CBC SV6 A 401       6.375   3.892  22.776  1.00  0.00     0.012 C
HETATM   53  CBD SV6 A 401       6.541   4.473  25.196  1.00  0.00     0.012 C
HETATM   54  CBA SV6 A 401       6.142   2.060  24.553  1.00  0.00     0.012 C
ENDBRANCH  22  51
ENDBRANCH  20  22
ENDBRANCH  11  18
ENDBRANCH   9  11
ENDBRANCH   1   7
TORSDOF 14
