MODEL        1
REMARK THIS MODEL IS IDENTICAL TO THE INPUT LIGAND AND NOT FROM DOCKING
REMARK 921   NORMALIZED FREE ENERGY PREDICTED BY IDOCK:   -3.20 KCAL/MOL
REMARK 922        TOTAL FREE ENERGY PREDICTED BY IDOCK:   -5.23 KCAL/MOL
REMARK 923 INTER-LIGAND FREE ENERGY PREDICTED BY IDOCK:   -4.51 KCAL/MOL
REMARK 924 INTRA-LIGAND FREE ENERGY PREDICTED BY IDOCK:   -0.72 KCAL/MOL
REMARK 927      BINDING AFFINITY PREDICTED BY RF-SCORE:    0.00 PKD
ROOT
HETATM    1  N1  UHY A 405       7.686   1.919  22.654  1.00  0.00    -0.203 N  
HETATM    2  C4  UHY A 405       8.079   1.058  21.691  1.00  0.00    -0.278 C  
HETATM    3  O1  UHY A 405       9.081   1.215  21.000  1.00  0.00    -0.637 OA 
HETATM    4  H1  UHY A 405       6.899   1.660  23.249  1.00  0.00     0.000 HD 
ENDROOT
BRANCH   1   5
HETATM    5  C5  UHY A 405       8.324   3.173  22.874  1.00  0.00    -0.236 A  
HETATM    6  C10 UHY A 405       9.590   5.608  23.238  1.00  0.00    -0.290 A  
HETATM    7  C6  UHY A 405       9.552   3.212  23.557  1.00  0.00    -0.283 A  
HETATM    8  C13 UHY A 405       6.358   4.311  21.730  1.00  0.00    -0.314 C  
HETATM    9  C11 UHY A 405       8.389   5.546  22.556  1.00  0.00    -0.203 A  
HETATM   10  C12 UHY A 405       7.720   4.335  22.377  1.00  0.00    -0.305 A  
HETATM   11  C9  UHY A 405      10.168   4.450  23.733  1.00  0.00    -0.292 A  
BRANCH   7  12
HETATM   12  C7  UHY A 405      10.205   1.965  24.115  1.00  0.00    -0.350 C  
HETATM   13  C8  UHY A 405       9.523   1.423  25.361  1.00  0.00    -0.324 C  
ENDBRANCH   7  12
ENDBRANCH   1   5
BRANCH   2  14
HETATM   14  C3  UHY A 405       7.079  -0.066  21.375  1.00  0.00    -0.297 C  
BRANCH  14  15
HETATM   15  N   UHY A 405       7.475  -1.470  21.678  1.00  0.00    -0.264 N  
HETATM   16  O   UHY A 405       5.548  -2.396  20.959  1.00  0.00    -0.438 OA 
HETATM   17  C2  UHY A 405       6.695  -2.540  21.339  1.00  0.00     0.338 C  
BRANCH  15  18
HETATM   18  C19 UHY A 405       8.729  -1.636  22.366  1.00  0.00    -0.290 A  
HETATM   19  N3  UHY A 405      11.127  -1.801  22.282  1.00  0.00    -0.536 NA 
HETATM   20  C26 UHY A 405      13.044  -0.748  24.764  1.00  0.00    -0.646 C  
HETATM   21  C21 UHY A 405      11.147  -1.964  23.615  1.00  0.00    -0.432 A  
HETATM   22  C20 UHY A 405       9.938  -1.652  21.677  1.00  0.00    -0.299 A  
HETATM   23  C22 UHY A 405       9.984  -1.980  24.379  1.00  0.00     0.226 A  
HETATM   24  C24 UHY A 405      12.548  -2.089  24.234  1.00  0.00    -0.519 C  
HETATM   25  C25 UHY A 405      12.611  -3.159  25.326  1.00  0.00    -0.540 C  
HETATM   26  C23 UHY A 405       8.765  -1.805  23.747  1.00  0.00    -0.267 A  
ENDBRANCH  15  18
BRANCH  17  27
HETATM   27  C1  UHY A 405       7.310  -3.921  21.385  1.00  0.00     1.337 C  
HETATM   28  C   UHY A 405       6.996  -4.729  20.130  1.00  0.00     4.554 C  
ENDBRANCH  17  27
ENDBRANCH  14  15
BRANCH  14  29
HETATM   29  C14 UHY A 405       6.391   0.172  20.042  1.00  0.00    -0.357 A  
HETATM   30  C18 UHY A 405       5.188   0.861  19.977  1.00  0.00    -0.483 A  
HETATM   31  N2  UHY A 405       6.597   0.347  17.646  1.00  0.00    -0.541 NA 
HETATM   32  C17 UHY A 405       4.709   1.307  18.760  1.00  0.00    -0.431 A  
HETATM   33  C16 UHY A 405       5.446   1.029  17.626  1.00  0.00    -0.402 A  
HETATM   34  C15 UHY A 405       7.038  -0.073  18.838  1.00  0.00    -0.509 A  
ENDBRANCH  14  29
ENDBRANCH   2  14
TORSDOF 7
ENDMDL
