REMARK  7 active torsions:
REMARK  status: ('A' for Active; 'I' for Inactive)
REMARK    1  A    between atoms: NBD_7  and  CBC_8
REMARK    2  A    between atoms: CBC_8  and  CAZ_9
REMARK    3  A    between atoms: CAV_12  and  CAU_15
REMARK    4  A    between atoms: NAT_16  and  CAO_19
REMARK    5  A    between atoms: CAM_21  and  NAL_26
REMARK    6  A    between atoms: NAL_26  and  CAJ_28
REMARK    7  A    between atoms: CAG_30  and  CAF_33
ROOT
HETATM    1  CBE XNJ A 401      19.206   5.811  24.259  1.00  0.00     0.100 C
HETATM    2  CBF XNJ A 401      19.898   6.132  22.956  1.00  0.00     0.096 C
HETATM    3  NBG XNJ A 401      18.963   6.706  21.997  1.00  0.00    -0.314 NA
HETATM    4  CBH XNJ A 401      18.378   7.913  22.565  1.00  0.00     0.096 C
HETATM    5  HBG XNJ A 401      19.394   6.875  21.088  1.00  0.00     0.122 HD
HETATM    6  CBI XNJ A 401      17.679   7.615  23.869  1.00  0.00     0.100 C
HETATM    7  NBD XNJ A 401      18.601   7.014  24.835  1.00  0.00    -0.296 NA
ENDROOT
BRANCH   7   8
HETATM    8  CBC XNJ A 401      17.958   6.752  26.129  1.00  0.00     0.119 C
BRANCH   8   9
HETATM    9  CAZ XNJ A 401      16.708   5.901  26.067  1.00  0.00    -0.033 A
HETATM   10  CBA XNJ A 401      15.453   6.484  25.924  1.00  0.00     0.005 A
HETATM   11  CBB XNJ A 401      14.309   5.708  25.871  1.00  0.00     0.013 A
HETATM   12  CAV XNJ A 401      14.392   4.330  25.980  1.00  0.00     0.034 A
HETATM   13  CAY XNJ A 401      16.783   4.518  26.193  1.00  0.00     0.005 A
HETATM   14  CAX XNJ A 401      15.637   3.742  26.149  1.00  0.00     0.013 A
BRANCH  12  15
HETATM   15  CAU XNJ A 401      13.169   3.473  25.943  1.00  0.00     0.236 C
HETATM   16  NAT XNJ A 401      12.061   4.023  25.401  1.00  0.00    -0.224 N
HETATM   17  OAW XNJ A 401      13.202   2.317  26.349  1.00  0.00    -0.274 OA
HETATM   18  HAT XNJ A 401      12.112   4.998  25.105  1.00  0.00     0.137 HD
BRANCH  16  19
HETATM   19  CAO XNJ A 401      10.840   3.346  25.215  1.00  0.00     0.024 A
HETATM   20  CAN XNJ A 401      10.504   2.878  23.953  1.00  0.00     0.040 A
HETATM   21  CAM XNJ A 401       9.303   2.199  23.763  1.00  0.00     0.026 A
HETATM   22  CAP XNJ A 401       9.987   3.121  26.289  1.00  0.00     0.020 A
HETATM   23  CAR XNJ A 401       8.438   1.962  24.835  1.00  0.00    -0.032 A
HETATM   24  CAQ XNJ A 401       8.802   2.436  26.096  1.00  0.00     0.006 A
HETATM   25  CAS XNJ A 401       7.138   1.229  24.662  1.00  0.00     0.045 C
BRANCH  21  26
HETATM   26  NAL XNJ A 401       8.966   1.708  22.484  1.00  0.00    -0.237 NA
HETATM   27  HAL XNJ A 401       7.975   1.729  22.244  1.00  0.00     0.136 HD
BRANCH  26  28
HETATM   28  CAJ XNJ A 401       9.800   1.211  21.533  1.00  0.00     0.150 A
HETATM   29  NAK XNJ A 401       9.386   0.906  20.339  1.00  0.00    -0.228 NA
HETATM   30  CAG XNJ A 401      10.414   0.323  19.595  1.00  0.00     0.081 A
HETATM   31  SAI XNJ A 401      11.489   0.899  21.809  1.00  0.00    -0.063 SA
HETATM   32  CAH XNJ A 401      11.612   0.253  20.223  1.00  0.00     0.076 A
BRANCH  30  33
HETATM   33  CAF XNJ A 401      10.119  -0.164  18.244  1.00  0.00     0.019 A
HETATM   34  CAA XNJ A 401      11.072  -0.840  17.491  1.00  0.00     0.013 A
HETATM   35  CAB XNJ A 401      10.761  -1.302  16.232  1.00  0.00     0.020 A
HETATM   36  CAC XNJ A 401       9.496  -1.066  15.746  1.00  0.00     0.111 A
HETATM   37  NAD XNJ A 401       8.549  -0.432  16.452  1.00  0.00    -0.263 NA
HETATM   38  CAE XNJ A 401       8.868   0.010  17.673  1.00  0.00     0.120 A
ENDBRANCH  30  33
ENDBRANCH  26  28
ENDBRANCH  21  26
ENDBRANCH  16  19
ENDBRANCH  12  15
ENDBRANCH   8   9
ENDBRANCH   7   8
TORSDOF 7
