REMARK 11 active torsions:
REMARK  status: ('A' for Active; 'I' for Inactive)
REMARK    1  A    between atoms: N1_1  and  C6_4
REMARK    2  A    between atoms: N1_1  and  C10_22
REMARK    3  A    between atoms: C6_4  and  C5_5
REMARK    4  A    between atoms: C7_3  and  C8_32
REMARK    5  A    between atoms: C6_4  and  C20_16
REMARK    6  A    between atoms: N_7  and  C4_9
REMARK    7  A    between atoms: C4_9  and  C3_10
REMARK    8  A    between atoms: C13_23  and  C16_28
REMARK    9  A    between atoms: C3_10  and  C2_11
REMARK   10  A    between atoms: C2_11  and  O_13
REMARK   11  A    between atoms: O_13  and  C1_14
ROOT
HETATM    1  N1  VEG A1001       7.577  -1.423  21.661  1.00  0.00    -0.198 N
HETATM    2  O3  VEG A1001       5.613  -2.523  21.501  1.00  0.00    -0.279 OA
HETATM    3  C7  VEG A1001       6.784  -2.423  21.171  1.00  0.00     0.208 C
ENDROOT
BRANCH   1   4
HETATM    4  C6  VEG A1001       7.160  -0.014  21.437  1.00  0.00     0.183 C
BRANCH   4   5
HETATM    5  C5  VEG A1001       8.237   1.019  21.806  1.00  0.00     0.223 C
HETATM    6  O2  VEG A1001       9.105   1.336  20.995  1.00  0.00    -0.277 OA
HETATM    7  N   VEG A1001       8.134   1.565  23.018  1.00  0.00    -0.256 N
HETATM    8  H   VEG A1001       7.478   1.155  23.683  1.00  0.00     0.130 HD
BRANCH   7   9
HETATM    9  C4  VEG A1001       8.917   2.720  23.435  1.00  0.00     0.099 C
BRANCH   9  10
HETATM   10  C3  VEG A1001      10.309   2.345  23.902  1.00  0.00     0.122 C
BRANCH  10  11
HETATM   11  C2  VEG A1001      11.335   2.793  22.906  1.00  0.00     0.263 C
HETATM   12  O1  VEG A1001      11.289   2.546  21.729  1.00  0.00    -0.265 OA
BRANCH  11  13
HETATM   13  O   VEG A1001      12.296   3.523  23.474  1.00  0.00    -0.315 OA
BRANCH  13  14
HETATM   14  C1  VEG A1001      13.384   3.954  22.601  1.00  0.00     0.167 C
HETATM   15  C   VEG A1001      13.418   5.400  22.571  1.00  0.00     0.035 C
ENDBRANCH  13  14
ENDBRANCH  11  13
ENDBRANCH  10  11
ENDBRANCH   9  10
ENDBRANCH   7   9
ENDBRANCH   4   5
BRANCH   4  16
HETATM   16  C20 VEG A1001       6.509   0.295  20.095  1.00  0.00    -0.003 A
HETATM   17  N2  VEG A1001       6.658   0.364  17.688  1.00  0.00    -0.263 NA
HETATM   18  C21 VEG A1001       7.123  -0.009  18.886  1.00  0.00     0.116 A
HETATM   19  C23 VEG A1001       4.824   1.420  18.806  1.00  0.00     0.020 A
HETATM   20  C24 VEG A1001       5.328   1.021  20.030  1.00  0.00     0.008 A
HETATM   21  C22 VEG A1001       5.523   1.070  17.665  1.00  0.00     0.111 A
ENDBRANCH   4  16
ENDBRANCH   1   4
BRANCH   1  22
HETATM   22  C10 VEG A1001       8.816  -1.689  22.346  1.00  0.00     0.026 A
HETATM   23  C13 VEG A1001      11.263  -1.848  23.723  1.00  0.00    -0.042 A
HETATM   24  C12 VEG A1001      11.223  -1.743  22.334  1.00  0.00     0.006 A
HETATM   25  C14 VEG A1001      10.052  -1.907  24.409  1.00  0.00     0.006 A
HETATM   26  C11 VEG A1001      10.021  -1.672  21.651  1.00  0.00     0.020 A
HETATM   27  C15 VEG A1001       8.842  -1.831  23.736  1.00  0.00     0.020 A
BRANCH  23  28
HETATM   28  C16 VEG A1001      12.591  -1.830  24.493  1.00  0.00    -0.013 C
HETATM   29  C17 VEG A1001      12.733  -0.502  25.235  1.00  0.00     0.015 C
HETATM   30  C18 VEG A1001      13.788  -1.979  23.556  1.00  0.00     0.015 C
HETATM   31  C19 VEG A1001      12.656  -2.970  25.521  1.00  0.00     0.015 C
ENDBRANCH  23  28
ENDBRANCH   1  22
BRANCH   3  32
HETATM   32  C8  VEG A1001       7.310  -3.237  20.006  1.00  0.00     0.089 C
HETATM   33  C9  VEG A1001       8.029  -4.495  20.414  1.00  0.00     0.013 C
ENDBRANCH   3  32
TORSDOF 11
