MODEL        1
REMARK THIS MODEL IS IDENTICAL TO THE INPUT LIGAND AND NOT FROM DOCKING
REMARK 921   NORMALIZED FREE ENERGY PREDICTED BY IDOCK:   -6.24 KCAL/MOL
REMARK 922        TOTAL FREE ENERGY PREDICTED BY IDOCK:   -7.72 KCAL/MOL
REMARK 923 INTER-LIGAND FREE ENERGY PREDICTED BY IDOCK:   -7.33 KCAL/MOL
REMARK 924 INTRA-LIGAND FREE ENERGY PREDICTED BY IDOCK:   -0.39 KCAL/MOL
REMARK 927      BINDING AFFINITY PREDICTED BY RF-SCORE:    0.00 PKD
ROOT
HETATM    1  N1  UGG A1001       9.606  -0.786  21.939  1.00  0.00    -0.277 N  
HETATM    2  H1  UGG A1001       9.482  -1.798  21.961  1.00  0.00     0.000 HD 
HETATM    3  O   UGG A1001       9.161   1.086  20.728  1.00  0.00    -0.615 OA 
HETATM    4  C   UGG A1001       8.972  -0.107  20.963  1.00  0.00    -0.383 C  
ENDROOT
BRANCH   1   5
HETATM    5  C11 UGG A1001      10.425  -0.215  22.931  1.00  0.00    -0.253 A  
HETATM    6  C13 UGG A1001      12.496   0.820  23.567  1.00  0.00    -0.359 A  
HETATM    7  C16 UGG A1001       9.849   0.226  24.118  1.00  0.00    -0.239 A  
HETATM    8  C15 UGG A1001      10.596   0.977  25.008  1.00  0.00    -0.445 A  
HETATM    9  C12 UGG A1001      11.761   0.068  22.666  1.00  0.00    -0.388 A  
HETATM   10  C14 UGG A1001      11.914   1.278  24.730  1.00  0.00    -0.363 A  
ENDBRANCH   1   5
BRANCH   4  11
HETATM   11  C1  UGG A1001       7.945  -0.924  20.206  1.00  0.00    -0.027 C  
BRANCH  11  12
HETATM   12  C2  UGG A1001       7.007  -0.095  19.361  1.00  0.00    -0.425 A  
HETATM   13  C5  UGG A1001       5.069   1.387  19.090  1.00  0.00    -0.553 A  
HETATM   14  C10 UGG A1001       5.899   0.600  19.937  1.00  0.00    -0.449 A  
HETATM   15  C6  UGG A1001       3.983   2.100  19.654  1.00  0.00    -0.436 A  
HETATM   16  C4  UGG A1001       5.389   1.420  17.716  1.00  0.00    -0.319 A  
HETATM   17  C7  UGG A1001       3.727   2.030  20.991  1.00  0.00    -0.280 A  
HETATM   18  N   UGG A1001       6.411   0.771  17.179  1.00  0.00    -0.737 NA 
HETATM   19  C3  UGG A1001       7.182   0.045  17.998  1.00  0.00    -0.129 A  
HETATM   20  C8  UGG A1001       4.533   1.270  21.826  1.00  0.00    -0.274 A  
HETATM   21  C9  UGG A1001       5.592   0.567  21.323  1.00  0.00    -0.379 A  
ENDBRANCH  11  12
ENDBRANCH   4  11
TORSDOF 3
ENDMDL
