MODEL        1
REMARK THIS MODEL IS IDENTICAL TO THE INPUT LIGAND AND NOT FROM DOCKING
REMARK 921   NORMALIZED FREE ENERGY PREDICTED BY IDOCK:   -0.12 KCAL/MOL
REMARK 922        TOTAL FREE ENERGY PREDICTED BY IDOCK:   -0.33 KCAL/MOL
REMARK 923 INTER-LIGAND FREE ENERGY PREDICTED BY IDOCK:   -0.13 KCAL/MOL
REMARK 924 INTRA-LIGAND FREE ENERGY PREDICTED BY IDOCK:   -0.20 KCAL/MOL
REMARK 927      BINDING AFFINITY PREDICTED BY RF-SCORE:    0.00 PKD
ROOT
HETATM    1  N1  T2V A 404      10.068  -2.377  23.715  1.00  0.00    -0.295 NA 
HETATM    2  C7  T2V A 404       9.703  -3.600  23.933  1.00  0.00    -0.389 A  
HETATM    3  C8  T2V A 404      11.286  -2.109  24.336  1.00  0.00    -0.351 A  
HETATM    4  S   T2V A 404      10.757  -4.546  24.957  1.00  0.00    -0.332 SA 
HETATM    5  C9  T2V A 404      11.977  -0.903  24.287  1.00  0.00    -0.324 A  
HETATM    6  C13 T2V A 404      11.821  -3.180  25.061  1.00  0.00    -0.482 A  
HETATM    7  C12 T2V A 404      13.035  -3.074  25.736  1.00  0.00    -0.519 A  
HETATM    8  C10 T2V A 404      13.179  -0.806  24.954  1.00  0.00    -0.537 A  
HETATM    9  C11 T2V A 404      13.706  -1.875  25.666  1.00  0.00    -0.555 A  
ENDROOT
BRANCH   2  10
HETATM   10  C5  T2V A 404       8.432  -4.185  23.359  1.00  0.00    -0.331 C  
HETATM   11  C1  T2V A 404       6.683  -4.077  20.143  1.00  0.00     1.319 C  
HETATM   12  O   T2V A 404       5.649  -4.523  19.664  1.00  0.00    -0.371 OA 
HETATM   13  C3  T2V A 404       7.193  -6.350  23.002  1.00  0.00    -0.330 C  
HETATM   14  N   T2V A 404       7.179  -4.562  21.299  1.00  0.00    -0.154 N  
HETATM   15  C   T2V A 404       7.438  -2.988  19.412  1.00  0.00     4.011 C  
HETATM   16  C6  T2V A 404       8.509  -4.318  21.849  1.00  0.00     0.115 C  
HETATM   17  C4  T2V A 404       8.057  -5.539  23.971  1.00  0.00    -0.243 C  
HETATM   18  C2  T2V A 404       6.349  -5.430  22.143  1.00  0.00    -0.358 C  
ENDBRANCH   2  10
TORSDOF 1
ENDMDL
