REMARK  7 active torsions:
REMARK  status: ('A' for Active; 'I' for Inactive)
REMARK    1  A    between atoms: C02_1  and  C30_4
REMARK    2  A    between atoms: N03_3  and  C20_10
REMARK    3  A    between atoms: N03_3  and  C04_20
REMARK    4  A    between atoms: C04_20  and  C05_21
REMARK    5  A    between atoms: C04_20  and  C14_31
REMARK    6  A    between atoms: N06_24  and  C07_25
REMARK    7  A    between atoms: C23_15  and  C24_16
ROOT
HETATM    1  C02 X77 A 401     -19.908  21.124 -29.295  1.00  0.00     0.259 C
HETATM    2  O01 X77 A 401     -19.635  22.244 -29.036  1.00  0.00    -0.272 OA
HETATM    3  N03 X77 A 401     -19.914  20.161 -28.186  1.00  0.00    -0.193 N
ENDROOT
BRANCH   1   4
HETATM    4  C30 X77 A 401     -20.246  20.704 -30.744  1.00  0.00     0.134 A
HETATM    5  H32 X77 A 401     -21.169  18.827 -33.143  1.00  0.00     0.134 HD
HETATM    6  C33 X77 A 401     -20.588  20.828 -32.869  1.00  0.00     0.171 A
HETATM    7  C31 X77 A 401     -20.656  19.470 -31.212  1.00  0.00     0.090 A
HETATM    8  N34 X77 A 401     -20.218  21.522 -31.775  1.00  0.00    -0.238 NA
HETATM    9  N32 X77 A 401     -20.860  19.573 -32.520  1.00  0.00    -0.253 NA
ENDBRANCH   1   4
BRANCH   3  10
HETATM   10  C20 X77 A 401     -20.313  18.742 -28.341  1.00  0.00     0.027 A
HETATM   11  C21 X77 A 401     -21.658  18.414 -28.147  1.00  0.00     0.020 A
HETATM   12  C22 X77 A 401     -22.069  17.082 -28.287  1.00  0.00     0.006 A
HETATM   13  C29 X77 A 401     -19.389  17.775 -28.688  1.00  0.00     0.020 A
HETATM   14  C28 X77 A 401     -19.802  16.438 -28.829  1.00  0.00     0.006 A
HETATM   15  C23 X77 A 401     -21.139  16.094 -28.633  1.00  0.00    -0.042 A
BRANCH  15  16
HETATM   16  C24 X77 A 401     -21.605  14.599 -28.784  1.00  0.00    -0.013 C
HETATM   17  C26 X77 A 401     -20.444  13.613 -29.034  1.00  0.00     0.015 C
HETATM   18  C25 X77 A 401     -22.299  14.196 -27.479  1.00  0.00     0.015 C
HETATM   19  C27 X77 A 401     -22.583  14.477 -29.950  1.00  0.00     0.015 C
ENDBRANCH  15  16
ENDBRANCH   3  10
BRANCH   3  20
HETATM   20  C04 X77 A 401     -19.682  20.621 -26.849  1.00  0.00     0.184 C
BRANCH  20  21
HETATM   21  C05 X77 A 401     -19.506  19.375 -25.932  1.00  0.00     0.223 C
HETATM   22  O13 X77 A 401     -18.546  18.654 -26.028  1.00  0.00    -0.277 OA
HETATM   23  H06 X77 A 401     -21.319  19.803 -24.854  1.00  0.00     0.131 HD
HETATM   24  N06 X77 A 401     -20.539  19.148 -24.908  1.00  0.00    -0.254 N
BRANCH  24  25
HETATM   25  C07 X77 A 401     -20.504  18.047 -23.977  1.00  0.00     0.061 C
HETATM   26  C11 X77 A 401     -21.763  15.894 -23.429  1.00  0.00     0.002 C
HETATM   27  C12 X77 A 401     -21.457  16.957 -24.497  1.00  0.00     0.019 C
HETATM   28  C08 X77 A 401     -21.000  18.590 -22.640  1.00  0.00     0.019 C
HETATM   29  C09 X77 A 401     -21.117  17.490 -21.586  1.00  0.00     0.002 C
HETATM   30  C10 X77 A 401     -22.085  16.444 -22.055  1.00  0.00     0.000 C
ENDBRANCH  24  25
ENDBRANCH  20  21
BRANCH  20  31
HETATM   31  C14 X77 A 401     -18.425  21.391 -26.572  1.00  0.00    -0.003 A
HETATM   32  C15 X77 A 401     -18.498  22.448 -25.736  1.00  0.00     0.008 A
HETATM   33  C17 X77 A 401     -16.149  22.739 -25.993  1.00  0.00     0.111 A
HETATM   34  C19 X77 A 401     -17.231  21.012 -27.123  1.00  0.00     0.116 A
HETATM   35  N18 X77 A 401     -16.096  21.679 -26.816  1.00  0.00    -0.263 NA
HETATM   36  C16 X77 A 401     -17.350  23.138 -25.438  1.00  0.00     0.020 A
ENDBRANCH  20  31
ENDBRANCH   3  20
TORSDOF 7
