MODEL        1
REMARK THIS MODEL IS IDENTICAL TO THE INPUT LIGAND AND NOT FROM DOCKING
REMARK 921   NORMALIZED FREE ENERGY PREDICTED BY IDOCK:   -6.95 KCAL/MOL
REMARK 922        TOTAL FREE ENERGY PREDICTED BY IDOCK:   -7.68 KCAL/MOL
REMARK 923 INTER-LIGAND FREE ENERGY PREDICTED BY IDOCK:   -7.36 KCAL/MOL
REMARK 924 INTRA-LIGAND FREE ENERGY PREDICTED BY IDOCK:   -0.32 KCAL/MOL
REMARK 927      BINDING AFFINITY PREDICTED BY RF-SCORE:    0.00 PKD
ROOT
HETATM    1  N1  UHA A1001       7.149   0.622  17.263  1.00  0.00    -0.444 NA 
HETATM    2  C4  UHA A1001       7.772  -0.036  18.246  1.00  0.00    -0.270 A  
HETATM    3  C3  UHA A1001       7.337  -0.016  19.570  1.00  0.00    -0.369 A  
HETATM    4  C7  UHA A1001       6.205   0.744  19.907  1.00  0.00    -0.487 A  
HETATM    5  C5  UHA A1001       6.051   1.315  17.587  1.00  0.00    -0.259 A  
HETATM    6  C6  UHA A1001       5.552   1.403  18.873  1.00  0.00    -0.614 A  
HETATM    7  C8  UHA A1001       5.757   0.923  21.335  1.00  0.00    -0.393 C  
ENDROOT
BRANCH   3   8
HETATM    8  N   UHA A1001       8.002  -0.764  20.556  1.00  0.00    -0.278 N  
HETATM    9  H   UHA A1001       7.561  -1.628  20.872  1.00  0.00     0.000 HD 
HETATM   10  O   UHA A1001       9.823   0.577  20.789  1.00  0.00    -0.550 OA 
HETATM   11  C1  UHA A1001       9.677  -1.363  22.221  1.00  0.00    -0.272 C  
HETATM   12  C2  UHA A1001       9.184  -0.422  21.117  1.00  0.00    -0.327 C  
HETATM   13  C   UHA A1001       8.854  -1.294  23.510  1.00  0.00    -0.222 C  
HETATM   14  C9  UHA A1001      11.156  -1.069  22.442  1.00  0.00    -0.261 A  
HETATM   15  C10 UHA A1001      11.576  -0.163  23.410  1.00  0.00    -0.285 A  
HETATM   16  C11 UHA A1001      12.905   0.222  23.486  1.00  0.00    -0.481 A  
HETATM   17  C12 UHA A1001      13.836  -0.298  22.596  1.00  0.00    -0.407 A  
HETATM   18  C13 UHA A1001      13.419  -1.242  21.678  1.00  0.00    -0.490 A  
HETATM   19  C14 UHA A1001      12.099  -1.635  21.591  1.00  0.00    -0.437 A  
HETATM   20 CL   UHA A1001      14.589  -1.987  20.627  1.00  0.00    -0.516 Cl 
ENDBRANCH   3   8
TORSDOF 1
ENDMDL
