REMARK  7 active torsions:
REMARK  status: ('A' for Active; 'I' for Inactive)
REMARK    1  A    between atoms: N1_1  and  C5_5
REMARK    2  A    between atoms: C4_2  and  C3_11
REMARK    3  A    between atoms: C3_11  and  C10_12
REMARK    4  A    between atoms: C3_11  and  N_18
REMARK    5  A    between atoms: N_18  and  C15_21
REMARK    6  A    between atoms: C2_20  and  C1_31
REMARK    7  A    between atoms: C18_24  and  C21_27
ROOT
HETATM    1  N1  VEP A 405       8.013   2.038  22.610  1.00  0.00    -0.253 N
HETATM    2  C4  VEP A 405       8.255   1.128  21.664  1.00  0.00     0.223 C
HETATM    3  O1  VEP A 405       9.244   1.169  20.943  1.00  0.00    -0.277 OA
HETATM    4  H1  VEP A 405       7.166   1.954  23.173  1.00  0.00     0.131 HD
ENDROOT
BRANCH   1   5
HETATM    5  C5  VEP A 405       8.925   3.150  22.862  1.00  0.00     0.065 C
HETATM    6  C6  VEP A 405       8.178   4.476  22.920  1.00  0.00     0.047 C
HETATM    7  C9  VEP A 405       9.734   2.915  24.132  1.00  0.00     0.047 C
HETATM    8  C7  VEP A 405       9.173   5.578  23.203  1.00  0.00     0.161 C
HETATM    9  O2  VEP A 405       9.902   5.331  24.421  1.00  0.00    -0.380 OA
HETATM   10  C8  VEP A 405      10.646   4.101  24.349  1.00  0.00     0.161 C
ENDBRANCH   1   5
BRANCH   2  11
HETATM   11  C3  VEP A 405       7.164   0.069  21.432  1.00  0.00     0.183 C
BRANCH  11  12
HETATM   12  C10 VEP A 405       6.453   0.280  20.105  1.00  0.00    -0.003 A
HETATM   13  C14 VEP A 405       5.314   1.070  20.030  1.00  0.00     0.008 A
HETATM   14  N2  VEP A 405       6.545   0.222  17.697  1.00  0.00    -0.263 NA
HETATM   15  C11 VEP A 405       7.012  -0.128  18.901  1.00  0.00     0.116 A
HETATM   16  C12 VEP A 405       5.452   0.992  17.665  1.00  0.00     0.111 A
HETATM   17  C13 VEP A 405       4.803   1.436  18.801  1.00  0.00     0.020 A
ENDBRANCH  11  12
BRANCH  11  18
HETATM   18  N   VEP A 405       7.567  -1.323  21.769  1.00  0.00    -0.198 N
HETATM   19  O   VEP A 405       5.558  -2.240  21.302  1.00  0.00    -0.279 OA
HETATM   20  C2  VEP A 405       6.751  -2.385  21.502  1.00  0.00     0.208 C
BRANCH  18  21
HETATM   21  C15 VEP A 405       8.804  -1.486  22.479  1.00  0.00     0.026 A
HETATM   22  C17 VEP A 405      11.189  -1.827  22.484  1.00  0.00     0.006 A
HETATM   23  C20 VEP A 405       8.829  -1.412  23.870  1.00  0.00     0.020 A
HETATM   24  C18 VEP A 405      11.227  -1.738  23.875  1.00  0.00    -0.042 A
HETATM   25  C19 VEP A 405      10.027  -1.539  24.553  1.00  0.00     0.006 A
HETATM   26  C16 VEP A 405       9.997  -1.704  21.789  1.00  0.00     0.020 A
BRANCH  24  27
HETATM   27  C21 VEP A 405      12.549  -1.809  24.655  1.00  0.00    -0.013 C
HETATM   28  C24 VEP A 405      12.612  -3.070  25.537  1.00  0.00     0.015 C
HETATM   29  C23 VEP A 405      13.766  -1.833  23.732  1.00  0.00     0.015 C
HETATM   30  C22 VEP A 405      12.680  -0.583  25.560  1.00  0.00     0.015 C
ENDBRANCH  24  27
ENDBRANCH  18  21
BRANCH  20  31
HETATM   31  C1  VEP A 405       7.369  -3.751  21.401  1.00  0.00     0.089 C
HETATM   32  C   VEP A 405       7.121  -4.353  20.029  1.00  0.00     0.013 C
ENDBRANCH  20  31
ENDBRANCH  11  18
ENDBRANCH   2  11
TORSDOF 7
