MODEL        1
REMARK THIS MODEL IS IDENTICAL TO THE INPUT LIGAND AND NOT FROM DOCKING
REMARK 921   NORMALIZED FREE ENERGY PREDICTED BY IDOCK:   -4.57 KCAL/MOL
REMARK 922        TOTAL FREE ENERGY PREDICTED BY IDOCK:   -4.88 KCAL/MOL
REMARK 923 INTER-LIGAND FREE ENERGY PREDICTED BY IDOCK:   -4.84 KCAL/MOL
REMARK 924 INTRA-LIGAND FREE ENERGY PREDICTED BY IDOCK:   -0.04 KCAL/MOL
REMARK 927      BINDING AFFINITY PREDICTED BY RF-SCORE:    0.00 PKD
ROOT
HETATM    1  N1  NTG A 404       9.978   1.480  21.333  1.00  0.00    -0.496 NA 
HETATM    2  C1  NTG A 404       9.837   0.515  21.943  1.00  0.00    -0.348 C  
HETATM    3  C2  NTG A 404       9.667  -0.635  22.734  1.00  0.00    -0.263 A  
HETATM    4  C3  NTG A 404       8.963  -0.532  23.922  1.00  0.00    -0.232 A  
HETATM    5  C4  NTG A 404       8.890  -1.641  24.759  1.00  0.00    -0.289 A  
HETATM    6  C5  NTG A 404       9.527  -2.848  24.404  1.00  0.00    -0.304 A  
HETATM    7  C6  NTG A 404      10.199  -2.839  23.136  1.00  0.00    -0.449 A  
HETATM    8  N2  NTG A 404      10.280  -1.780  22.312  1.00  0.00    -0.536 NA 
ENDROOT
BRANCH   6   9
HETATM    9  N3  NTG A 404       9.605  -4.030  25.232  1.00  0.00    -0.183 NA 
HETATM   10  C7  NTG A 404       9.964  -5.350  24.643  1.00  0.00    -0.285 C  
HETATM   11  C8  NTG A 404       8.975  -5.856  23.587  1.00  0.00    -0.311 C  
HETATM   12  C9  NTG A 404       7.510  -5.637  24.007  1.00  0.00    -0.124 C  
HETATM   13  O1  NTG A 404       7.370  -5.853  25.407  1.00  0.00    -0.269 OA 
HETATM   14  C10 NTG A 404       7.361  -4.724  26.246  1.00  0.00    -0.310 C  
HETATM   15  C11 NTG A 404       8.778  -4.134  26.466  1.00  0.00    -0.439 C  
ENDBRANCH   6   9
TORSDOF 1
ENDMDL
