REMARK  5 active torsions:
REMARK  status: ('A' for Active; 'I' for Inactive)
REMARK    1  A    between atoms: C4_4  and  C7_7
REMARK    2  A    between atoms: C7_7  and  C8_8
REMARK    3  A    between atoms: N1_11  and  C13B_14
REMARK    4  A    between atoms: C13B_14  and  C14B_16
REMARK    5  A    between atoms: C14B_16  and  C15B_19
ROOT
HETATM    1  C1 BQEL A 401      -1.728   4.649 -25.273  1.00  0.00     0.000 A
HETATM    2  C6 BQEL A 401      -1.654   3.470 -24.541  1.00  0.00     0.000 A
HETATM    3  C5 BQEL A 401      -0.443   2.805 -24.391  1.00  0.00     0.003 A
HETATM    4  C4 BQEL A 401       0.723   3.295 -24.974  1.00  0.00    -0.047 A
HETATM    5  C01BQEL A 401      -0.576   5.150 -25.853  1.00  0.00     0.000 A
HETATM    6  C02BQEL A 401       0.637   4.484 -25.706  1.00  0.00     0.003 A
ENDROOT
BRANCH   4   7
HETATM    7  C7 BQEL A 401       2.032   2.576 -24.808  1.00  0.00     0.038 C
BRANCH   7   8
HETATM    8  C8 BQEL A 401       2.799   2.851 -23.509  1.00  0.00    -0.004 C
HETATM    9  C9 BQEL A 401       3.702   4.086 -23.580  1.00  0.00     0.019 C
HETATM   10  C10BQEL A 401       4.475   4.358 -22.282  1.00  0.00     0.085 C
HETATM   11  N1 BQEL A 401       5.258   3.169 -21.805  1.00  0.00    -0.297 NA
HETATM   12  C12BQEL A 401       3.708   1.717 -23.085  1.00  0.00     0.019 C
HETATM   13  C11BQEL A 401       4.356   1.987 -21.738  1.00  0.00     0.085 C
BRANCH  11  14
HETATM   14  C13BQEL A 401       5.779   3.440 -20.414  1.00  0.00     0.087 C
HETATM   15  C24BQEL A 401       6.070   4.944 -20.313  1.00  0.00     0.027 C
BRANCH  14  16
HETATM   16  C14BQEL A 401       6.940   2.414 -19.874  1.00  0.00     0.161 C
HETATM   17  O1 BQEL A 401       7.383   1.550 -20.871  1.00  0.00    -0.386 OA
HETATM   18  H1 BQEL A 401       8.055   0.956 -20.558  1.00  0.00     0.210 HD
BRANCH  16  19
HETATM   19  C15BQEL A 401       8.244   3.043 -19.350  1.00  0.00    -0.018 A
HETATM   20  C16BQEL A 401       9.469   2.836 -19.988  1.00  0.00     0.009 A
HETATM   21  C2 BQEL A 401      10.650   3.399 -19.510  1.00  0.00     0.033 A
HETATM   22  C18BQEL A 401      10.616   4.187 -18.367  1.00  0.00     0.073 A
HETATM   23  O2 BQEL A 401      11.738   4.772 -17.850  1.00  0.00    -0.360 OA
HETATM   24  C3 BQEL A 401       9.417   4.409 -17.699  1.00  0.00     0.033 A
HETATM   25  C19BQEL A 401       8.254   3.827 -18.187  1.00  0.00     0.009 A
HETATM   26  H2 BQEL A 401      11.715   5.311 -17.068  1.00  0.00     0.217 HD
ENDBRANCH  16  19
ENDBRANCH  14  16
ENDBRANCH  11  14
ENDBRANCH   7   8
ENDBRANCH   4   7
TORSDOF 5
