REMARK  8 active torsions:
REMARK  status: ('A' for Active; 'I' for Inactive)
REMARK    1  A    between atoms: C10_11  and  O09_28
REMARK    2  A    between atoms: O09_28  and  C07_29
REMARK    3  A    between atoms: N19_26  and  C20_34
REMARK    4  A    between atoms: C20_34  and  C21_35
REMARK    5  A    between atoms: C20_34  and  C28_42
REMARK    6  A    between atoms: C28_42  and  C31_45
REMARK    7  A    between atoms: C21_35  and  C22_36
REMARK    8  A    between atoms: N33_47  and  C34_49
ROOT
HETATM    1  C14 UZ7 E   1     -24.969   9.699  29.914  1.00  0.00     0.003 A
HETATM    2  C13 UZ7 E   1     -26.345   9.411  30.158  1.00  0.00     0.000 A
ATOM      3  CA  LEU E   2     -24.064   3.671  26.404  1.00  0.00     0.000 C
HETATM    4  C12 UZ7 E   1     -26.728   8.096  30.203  1.00  0.00     0.003 A
ATOM      5  C   LEU E   2     -23.376   2.294  26.426  1.00  0.00     0.000 C
ATOM      6  O   LEU E   2     -22.241   2.176  25.957  1.00  0.00    -0.410 OA
HETATM    7  C11 UZ7 E   1     -25.739   7.032  29.996  1.00  0.00     0.033 A
ATOM      8  H1  LEU E   2     -21.291   2.176  25.957  1.00  0.00     0.205 HD
ATOM      9  H2  LEU E   2     -22.487   3.094  25.957  1.00  0.00     0.205 HD
ATOM     10  CB  LEU E   2     -24.268   4.014  24.901  1.00  0.00     0.000 C
HETATM   11  C10 UZ7 E   1     -24.326   7.292  29.763  1.00  0.00     0.087 A
ATOM     12  CG  LEU E   2     -25.007   5.313  24.623  1.00  0.00     0.000 C
ATOM     13  CD2 LEU E   3     -22.861  -1.253  29.742  1.00  0.00     0.000 C
HETATM   14  C15 UZ7 E   1     -24.014   8.662  29.739  1.00  0.00     0.033 A
ATOM     15  CD1 LEU E   2     -25.126   5.589  23.087  1.00  0.00     0.000 C
ATOM     16  CD1 LEU E   3     -25.330  -1.659  29.910  1.00  0.00     0.000 C
ATOM     17  CD2 LEU E   2     -26.325   5.261  25.260  1.00  0.00     0.000 C
ATOM     18  CG  LEU E   3     -24.224  -0.888  29.167  1.00  0.00     0.000 C
ATOM     19  CB  LEU E   3     -24.321  -1.068  27.606  1.00  0.00     0.000 C
HETATM   20  H19 UZ4 E   4     -21.421  -1.090  25.460  1.00  0.00     0.127 HD
ATOM     21  H1  LEU E   3     -23.488  -0.440  24.724  1.00  0.00     0.205 HD
ATOM     22  N   LEU E   3     -24.028   1.206  26.846  1.00  0.00     0.000 ?
ATOM     23  CA  LEU E   3     -23.472  -0.067  26.803  1.00  0.00     0.000 C
ATOM     24  C   LEU E   3     -23.384  -0.533  25.360  1.00  0.00     0.072 C
ATOM     25  O   LEU E   3     -24.438  -0.440  24.724  1.00  0.00    -0.410 OA
HETATM   26  N19 UZ4 E   4     -22.240  -1.060  24.853  1.00  0.00    -0.294 NA
ATOM     27  H2  LEU E   3     -24.684   0.478  24.724  1.00  0.00     0.205 HD
ENDROOT
BRANCH  11  28
HETATM   28  O09 UZ7 E   1     -23.200   6.119  29.427  1.00  0.00    -0.265 OA
BRANCH  28  29
HETATM   29  C07 UZ7 E   1     -23.698   5.053  28.518  1.00  0.00     0.340 C
ATOM     30  H1  LEU E   2     -22.529   5.131  26.728  1.00  0.00     0.129 HD
HETATM   31  O08 UZ7 E   1     -24.681   4.476  29.026  1.00  0.00    -0.245 OA
ATOM     32  H2  LEU E   2     -24.143   4.762  26.532  1.00  0.00     0.129 HD
ATOM     33  N   LEU E   2     -23.333   4.659  27.143  1.00  0.00    -0.247 N
ENDBRANCH  28  29
ENDBRANCH  11  28
BRANCH  26  34
HETATM   34  C20 UZ4 E   4     -22.108  -1.565  23.554  1.00  0.00     0.095 C
BRANCH  34  35
HETATM   35  C21 UZ4 E   4     -21.056  -0.887  22.667  1.00  0.00     0.035 C
BRANCH  35  36
HETATM   36  C22 UZ4 E   4     -21.326   0.578  22.506  1.00  0.00     0.082 C
HETATM   37  C23 UZ4 E   4     -22.611   0.950  21.706  1.00  0.00     0.036 C
HETATM   38  O27 UZ4 E   4     -19.025   1.105  22.014  1.00  0.00    -0.271 OA
HETATM   39  C24 UZ4 E   4     -22.314   2.237  20.989  1.00  0.00     0.146 C
HETATM   40  N25 UZ4 E   4     -20.833   2.271  20.949  1.00  0.00    -0.250 NA
HETATM   41  C26 UZ4 E   4     -20.207   1.322  21.815  1.00  0.00     0.245 C
ENDBRANCH  35  36
ENDBRANCH  34  35
BRANCH  34  42
HETATM   42  C28 UZ4 E   4     -21.817  -3.088  23.758  1.00  0.00     0.214 C
HETATM   43  O29 UZ4 E   4     -22.836  -3.456  24.662  1.00  0.00    -0.381 OA
HETATM   44  H29 UZ4 E   4     -22.659  -4.381  24.786  1.00  0.00     0.210 HD
BRANCH  42  45
HETATM   45  C31 UZ4 E   4     -22.249  -3.862  22.537  1.00  0.00     0.231 C
HETATM   46  O32 UZ4 E   4     -21.568  -3.823  21.563  1.00  0.00    -0.277 OA
HETATM   47  N33 UZ1 E   5     -23.408  -4.707  22.602  1.00  0.00    -0.253 N
HETATM   48  H33 UZ1 E   5     -23.909  -4.751  23.489  1.00  0.00     0.131 HD
BRANCH  47  49
HETATM   49  C34 UZ1 E   5     -23.926  -5.511  21.491  1.00  0.00     0.061 C
HETATM   50  C35 UZ1 E   5     -25.445  -5.829  21.595  1.00  0.00     0.020 C
HETATM   51  C36 UZ1 E   5     -24.945  -4.947  20.483  1.00  0.00     0.020 C
ENDBRANCH  47  49
ENDBRANCH  42  45
ENDBRANCH  34  42
ENDBRANCH  26  34
TORSDOF 8
