REMARK 10 active torsions:
REMARK  status: ('A' for Active; 'I' for Inactive)
REMARK    1  A    between atoms: C3_10  and  C41_34
REMARK    2  A    between atoms: N5_30  and  C19_39
REMARK    3  A    between atoms: C19_39  and  C20_40
REMARK    4  A    between atoms: C19_39  and  C25_53
REMARK    5  A    between atoms: C25_53  and  C26_54
REMARK    6  A    between atoms: C20_40  and  C21_41
REMARK    7  A    between atoms: C21_41  and  C22_42
REMARK    8  A    between atoms: C22_42  and  O_45
REMARK    9  A    between atoms: O_45  and  C_46
REMARK   10  A    between atoms: C_46  and  C6_47
ROOT
HETATM    1  C4  02J C   1       9.188  -7.702  27.844  1.00  0.00     0.065 A
ATOM      2  CA  ALA C   2       6.327  -5.633  25.437  1.00  0.00     0.000 C
HETATM    3  C5  02J C   1       9.652  -8.699  28.652  1.00  0.00     0.085 A
HETATM    4  C6  02J C   1      10.556  -8.531  29.869  1.00  0.00     0.074 C
HETATM    5  O1  02J C   1       9.174  -9.862  28.181  1.00  0.00    -0.217 OA
ATOM      6  C   ALA C   2       7.466  -4.614  25.236  1.00  0.00     0.000 C
HETATM    7  N2  02J C   1       8.402  -9.592  27.062  1.00  0.00    -0.123 NA
ATOM      8  O   ALA C   2       8.263  -4.337  26.142  1.00  0.00    -0.410 OA
ATOM      9  CB  ALA C   2       5.074  -4.937  25.938  1.00  0.00     0.000 C
HETATM   10  C3  02J C   1       8.413  -8.273  26.862  1.00  0.00     0.151 A
ATOM     11  H1  ALA C   2       9.213  -4.337  26.142  1.00  0.00     0.205 HD
ATOM     12  H2  ALA C   2       8.017  -3.419  26.142  1.00  0.00     0.205 HD
ATOM     13  N   VAL C   3       7.541  -4.061  24.030  1.00  0.00     0.000 ?
ATOM     14  CD1 LEU C   4       6.967   2.399  26.723  1.00  0.00     0.000 C
ATOM     15  CD2 LEU C   4       5.243   1.155  25.395  1.00  0.00     0.000 C
ATOM     16  CA  VAL C   3       8.565  -3.095  23.658  1.00  0.00     0.000 C
ATOM     17  CG  LEU C   4       6.731   1.311  25.689  1.00  0.00     0.000 C
ATOM     18  C   VAL C   3       7.859  -1.854  23.142  1.00  0.00     0.000 C
ATOM     19  H2  LEU C   4       9.290   1.960  22.174  1.00  0.00     0.205 HD
ATOM     20  H1  LEU C   4      10.486   1.042  22.174  1.00  0.00     0.205 HD
ATOM     21  O   VAL C   3       7.166  -1.917  22.119  1.00  0.00    -0.410 OA
ATOM     22  CB  VAL C   3       9.511  -3.655  22.584  1.00  0.00     0.000 C
ATOM     23  H2  VAL C   3       6.920  -0.999  22.119  1.00  0.00     0.205 HD
ATOM     24  H1  VAL C   3       8.116  -1.917  22.119  1.00  0.00     0.205 HD
ATOM     25  CG1 VAL C   3      10.412  -2.572  22.038  1.00  0.00     0.000 C
ATOM     26  CG2 VAL C   3      10.326  -4.801  23.143  1.00  0.00     0.000 C
ATOM     27  N   LEU C   4       8.031  -0.726  23.834  1.00  0.00     0.000 ?
ATOM     28  CA  LEU C   4       7.494   0.541  23.338  1.00  0.00     0.000 C
ATOM     29  C   LEU C   4       8.301   0.988  22.123  1.00  0.00     0.101 C
HETATM   30  N5  PJE C   5       7.358   1.396  21.130  1.00  0.00    -0.316 NA
ATOM     31  O   LEU C   4       9.536   1.042  22.174  1.00  0.00    -0.410 OA
ATOM     32  CB  LEU C   4       7.532   1.623  24.423  1.00  0.00     0.000 C
HETATM   33  H5  PJE C   5       6.738   2.133  21.466  1.00  0.00     0.122 HD
ENDROOT
BRANCH  10  34
HETATM   34  C41 02J C   1       7.689  -7.531  25.740  1.00  0.00     0.249 C
ATOM     35  H2  ALA C   2       7.081  -6.086  27.072  1.00  0.00     0.127 HD
ATOM     36  H1  ALA C   2       6.215  -6.213  25.611  1.00  0.00     0.127 HD
ATOM     37  N   ALA C   2       6.698  -6.708  26.360  1.00  0.00    -0.267 N
HETATM   38  O42 02J C   1       8.006  -7.702  24.531  1.00  0.00    -0.272 OA
ENDBRANCH  10  34
BRANCH  30  39
HETATM   39  C19 PJE C   5       8.069   1.783  19.918  1.00  0.00     0.054 C
BRANCH  39  40
HETATM   40  C20 PJE C   5       7.974   3.290  19.645  1.00  0.00     0.023 C
BRANCH  40  41
HETATM   41  C21 PJE C   5       9.170   3.810  19.905  1.00  0.00     0.062 C
BRANCH  41  42
HETATM   42  C22 PJE C   5       9.588   5.268  19.777  1.00  0.00     0.247 C
HETATM   43  O7  PJE C   5       9.137   5.934  18.804  1.00  0.00    -0.367 OA
HETATM   44  H7  PJE C   5       9.398   6.844  18.724  1.00  0.00     0.212 HD
BRANCH  42  45
HETATM   45  O   010 C   6      10.958   5.240  19.914  1.00  0.00    -0.347 OA
BRANCH  45  46
HETATM   46  C   010 C   6      12.002   4.651  20.652  1.00  0.00     0.198 C
BRANCH  46  47
HETATM   47  C6  010 C   6      13.311   5.459  20.658  1.00  0.00    -0.022 A
HETATM   48  C1  010 C   6      14.397   4.987  21.384  1.00  0.00     0.006 A
HETATM   49  C2  010 C   6      15.596   5.688  21.412  1.00  0.00     0.000 A
HETATM   50  C3  010 C   6      15.721   6.876  20.711  1.00  0.00     0.000 A
HETATM   51  C4  010 C   6      14.643   7.355  19.984  1.00  0.00     0.000 A
HETATM   52  C5  010 C   6      13.443   6.651  19.956  1.00  0.00     0.006 A
ENDBRANCH  46  47
ENDBRANCH  45  46
ENDBRANCH  42  45
ENDBRANCH  41  42
ENDBRANCH  40  41
ENDBRANCH  39  40
BRANCH  39  53
HETATM   53  C25 PJE C   5       7.591   0.955  18.728  1.00  0.00     0.031 C
BRANCH  53  54
HETATM   54  C26 PJE C   5       8.203  -0.439  18.764  1.00  0.00     0.082 C
HETATM   55  O8  PJE C   5       6.584  -1.309  17.187  1.00  0.00    -0.271 OA
HETATM   56  C27 PJE C   5       9.679  -0.349  18.544  1.00  0.00     0.036 C
HETATM   57  C29 PJE C   5       7.701  -1.269  17.588  1.00  0.00     0.245 C
HETATM   58  N6  PJE C   5       8.800  -2.016  17.076  1.00  0.00    -0.250 NA
HETATM   59  C28 PJE C   5      10.017  -1.695  17.867  1.00  0.00     0.146 C
ENDBRANCH  53  54
ENDBRANCH  39  53
ENDBRANCH  30  39
TORSDOF 10
