REMARK  3 active torsions:
REMARK  status: ('A' for Active; 'I' for Inactive)
REMARK    1  A    between atoms: C2_5  and  C1_9
REMARK    2  A    between atoms: C1_9  and  C_10
REMARK    3  A    between atoms: N2_11  and  C8_14
ROOT
HETATM    1  N1  UGM A1001      14.398  -1.975  20.469  1.00  0.00    -0.191 NA
HETATM    2  C6  UGM A1001      13.692  -1.496  21.227  1.00  0.00     0.101 C
HETATM    3  C5  UGM A1001      12.769  -0.901  22.160  1.00  0.00     0.070 A
HETATM    4  C7  UGM A1001      11.401  -1.109  22.020  1.00  0.00     0.026 A
HETATM    5  C2  UGM A1001      10.519  -0.517  22.918  1.00  0.00    -0.020 A
HETATM    6  C4  UGM A1001      13.208  -0.102  23.217  1.00  0.00     0.129 A
HETATM    7  C3  UGM A1001      11.063   0.258  23.931  1.00  0.00     0.114 A
HETATM    8  N   UGM A1001      12.378   0.473  24.095  1.00  0.00    -0.262 NA
ENDROOT
BRANCH   5   9
HETATM    9  C1  UGM A1001       9.025  -0.666  22.758  1.00  0.00     0.129 C
BRANCH   9  10
HETATM   10  C   UGM A1001       8.562   0.117  21.545  1.00  0.00     0.209 C
HETATM   11  N2  UGM A1001       7.255  -0.025  21.247  1.00  0.00    -0.227 N
HETATM   12  O   UGM A1001       9.321   0.870  20.936  1.00  0.00    -0.279 OA
HETATM   13  H2  UGM A1001       6.649  -0.322  22.012  1.00  0.00     0.136 HD
BRANCH  11  14
HETATM   14  C8  UGM A1001       6.625   0.188  20.003  1.00  0.00     0.040 A
HETATM   15  C12 UGM A1001       7.289   0.134  18.776  1.00  0.00     0.130 A
HETATM   16  N3  UGM A1001       6.781   0.624  17.639  1.00  0.00    -0.262 NA
HETATM   17  C11 UGM A1001       5.578   1.206  17.703  1.00  0.00     0.111 A
HETATM   18  C10 UGM A1001       4.840   1.307  18.869  1.00  0.00     0.021 A
HETATM   19  C9  UGM A1001       5.365   0.771  20.030  1.00  0.00     0.023 A
ENDBRANCH  11  14
ENDBRANCH   9  10
ENDBRANCH   5   9
TORSDOF 3
