REMARK  1 active torsions:
REMARK  status: ('A' for Active; 'I' for Inactive)
REMARK    1  A    between atoms: C13_9  and  C14_14
ROOT
HETATM    1  C10 T8A A 404       9.327  -4.689  25.319  1.00  0.00     0.000 A
HETATM    2  C09 T8A A 404       7.982  -4.992  25.392  1.00  0.00     0.000 A
HETATM    3  C08 T8A A 404       7.106  -4.475  24.456  1.00  0.00     0.005 A
HETATM    4  C07 T8A A 404       7.566  -3.643  23.434  1.00  0.00    -0.029 A
HETATM    5  C06 T8A A 404       6.583  -3.099  22.435  1.00  0.00     0.128 C
HETATM    6  N05 T8A A 404       7.270  -2.725  21.198  1.00  0.00    -0.239 N
HETATM    7  C02 T8A A 404       6.894  -3.269  20.009  1.00  0.00     0.201 C
HETATM    8  C20 T8A A 404       8.360  -1.775  21.430  1.00  0.00     0.105 C
HETATM    9  C13 T8A A 404       9.471  -2.429  22.248  1.00  0.00     0.064 C
HETATM   10  O01 T8A A 404       6.158  -4.244  19.939  1.00  0.00    -0.280 OA
HETATM   11  C03 T8A A 404       7.396  -2.641  18.739  1.00  0.00     0.105 C
HETATM   12  C11 T8A A 404       9.798  -3.865  24.309  1.00  0.00     0.004 A
HETATM   13  C12 T8A A 404       8.925  -3.322  23.357  1.00  0.00    -0.034 A
ENDROOT
BRANCH   9  14
HETATM   14  C14 T8A A 404      10.444  -1.376  22.738  1.00  0.00    -0.039 A
HETATM   15  C15 T8A A 404      11.726  -1.288  22.210  1.00  0.00     0.004 A
HETATM   16  C16 T8A A 404      12.615  -0.327  22.661  1.00  0.00     0.000 A
HETATM   17  C17 T8A A 404      12.235   0.565  23.638  1.00  0.00     0.000 A
HETATM   18  C18 T8A A 404      10.969   0.496  24.170  1.00  0.00     0.000 A
HETATM   19  C19 T8A A 404      10.078  -0.468  23.724  1.00  0.00     0.004 A
ENDBRANCH   9  14
TORSDOF 1
