MODEL        1
REMARK THIS MODEL IS IDENTICAL TO THE INPUT LIGAND AND NOT FROM DOCKING
REMARK 921   NORMALIZED FREE ENERGY PREDICTED BY IDOCK:    4.30 KCAL/MOL
REMARK 922        TOTAL FREE ENERGY PREDICTED BY IDOCK:    4.52 KCAL/MOL
REMARK 923 INTER-LIGAND FREE ENERGY PREDICTED BY IDOCK:    4.55 KCAL/MOL
REMARK 924 INTRA-LIGAND FREE ENERGY PREDICTED BY IDOCK:   -0.03 KCAL/MOL
REMARK 927      BINDING AFFINITY PREDICTED BY RF-SCORE:    0.00 PKD
ROOT
HETATM    1  N1  USD A 406       5.404  -3.353  21.778  1.00  0.00    -0.590 NA 
HETATM    2  C1  USD A 406       6.610  -3.247  21.189  1.00  0.00     0.566 A  
HETATM    3  C2  USD A 406       5.212  -2.633  22.894  1.00  0.00     0.014 A  
HETATM    4  N2  USD A 406       7.608  -2.466  21.637  1.00  0.00     0.140 NA 
HETATM    5  C4  USD A 406       7.366  -1.752  22.750  1.00  0.00    -0.241 A  
HETATM    6  C3  USD A 406       6.168  -1.793  23.426  1.00  0.00    -0.286 A  
ENDROOT
BRANCH   2   7
HETATM    7  C   USD A 406       6.885  -4.076  19.956  1.00  0.00     4.305 C  
HETATM    8  N   USD A 406       6.134  -5.106  19.773  1.00  0.00     0.641 NA 
HETATM    9  H2  USD A 406       5.391  -5.350  20.428  1.00  0.00     0.000 HD 
HETATM   10  H1  USD A 406       6.320  -5.666  18.940  1.00  0.00     0.000 HD 
ENDBRANCH   2   7
TORSDOF 1
ENDMDL
