MODEL        1
REMARK THIS MODEL IS IDENTICAL TO THE INPUT LIGAND AND NOT FROM DOCKING
REMARK 921   NORMALIZED FREE ENERGY PREDICTED BY IDOCK:   -3.15 KCAL/MOL
REMARK 922        TOTAL FREE ENERGY PREDICTED BY IDOCK:   -3.61 KCAL/MOL
REMARK 923 INTER-LIGAND FREE ENERGY PREDICTED BY IDOCK:   -3.52 KCAL/MOL
REMARK 924 INTRA-LIGAND FREE ENERGY PREDICTED BY IDOCK:   -0.08 KCAL/MOL
REMARK 927      BINDING AFFINITY PREDICTED BY RF-SCORE:    0.00 PKD
ROOT
HETATM    1  C10 RZS A1001      12.797   0.040  23.321  1.00  0.00    -0.394 A  
HETATM    2  C07 RZS A1001      12.505  -1.087  22.565  1.00  0.00    -0.462 A  
HETATM    3  C06 RZS A1001      11.365  -1.819  22.878  1.00  0.00    -0.547 A  
HETATM    4  C08 RZS A1001      13.425  -1.516  21.429  1.00  0.00    -0.164 C  
HETATM    5  C05 RZS A1001      10.571  -1.390  23.931  1.00  0.00    -0.359 A  
HETATM    6  N09 RZS A1001      14.117  -1.821  20.577  1.00  0.00     0.101 NA 
HETATM    7  C04 RZS A1001      10.930  -0.252  24.643  1.00  0.00    -0.342 A  
HETATM    8  N11 RZS A1001      12.014   0.425  24.323  1.00  0.00    -0.373 NA 
ENDROOT
BRANCH   7   9
HETATM    9  N03 RZS A1001      10.132   0.251  25.738  1.00  0.00    -0.331 NA 
HETATM   10  H03 RZS A1001      10.332   1.186  26.094  1.00  0.00     0.000 HD 
BRANCH   9  11
HETATM   11  C02 RZS A1001       9.063  -0.505  26.355  1.00  0.00    -0.263 C  
HETATM   12  C01 RZS A1001       8.940  -0.033  27.796  1.00  0.00    -0.386 C  
ENDBRANCH   9  11
ENDBRANCH   7   9
TORSDOF 2
ENDMDL
