MODEL        1
REMARK THIS MODEL IS IDENTICAL TO THE INPUT LIGAND AND NOT FROM DOCKING
REMARK 921   NORMALIZED FREE ENERGY PREDICTED BY IDOCK:    2.30 KCAL/MOL
REMARK 922        TOTAL FREE ENERGY PREDICTED BY IDOCK:    2.28 KCAL/MOL
REMARK 923 INTER-LIGAND FREE ENERGY PREDICTED BY IDOCK:    2.44 KCAL/MOL
REMARK 924 INTRA-LIGAND FREE ENERGY PREDICTED BY IDOCK:   -0.15 KCAL/MOL
REMARK 927      BINDING AFFINITY PREDICTED BY RF-SCORE:    0.00 PKD
ROOT
HETATM    1  C10 R7Q A 504       7.159  -1.619  19.471  1.00  0.00     1.068 C  
HETATM    2  C12 R7Q A 504       7.786  -2.545  18.425  1.00  0.00     4.651 C  
HETATM    3  C08 R7Q A 504       6.547  -0.375  18.830  1.00  0.00    -0.492 C  
HETATM    4  C11 R7Q A 504       8.234  -1.204  20.475  1.00  0.00     0.086 C  
HETATM    5  O09 R7Q A 504       6.933   0.009  17.779  1.00  0.00    -0.442 OA 
ENDROOT
BRANCH   3   6
HETATM    6  C05 R7Q A 504       5.412   0.353  19.551  1.00  0.00    -0.428 A  
HETATM    7  C04 R7Q A 504       4.753   1.325  18.956  1.00  0.00    -0.629 A  
HETATM    8  C03 R7Q A 504       3.618   2.044  19.683  1.00  0.00    -0.454 A  
HETATM    9  C02 R7Q A 504       3.295   1.688  20.910  1.00  0.00    -0.297 A  
HETATM   10  C01 R7Q A 504       2.155   2.402  21.633  1.00  0.00    -0.153 C  
HETATM   11  C07 R7Q A 504       4.056   0.563  21.601  1.00  0.00    -0.150 A  
HETATM   12  C06 R7Q A 504       5.038  -0.053  20.974  1.00  0.00    -0.323 A  
ENDBRANCH   3   6
TORSDOF 1
ENDMDL
