MODEL        1
REMARK THIS MODEL IS IDENTICAL TO THE INPUT LIGAND AND NOT FROM DOCKING
REMARK 921   NORMALIZED FREE ENERGY PREDICTED BY IDOCK:    0.48 KCAL/MOL
REMARK 922        TOTAL FREE ENERGY PREDICTED BY IDOCK:    0.50 KCAL/MOL
REMARK 923 INTER-LIGAND FREE ENERGY PREDICTED BY IDOCK:    0.54 KCAL/MOL
REMARK 924 INTRA-LIGAND FREE ENERGY PREDICTED BY IDOCK:   -0.04 KCAL/MOL
REMARK 927      BINDING AFFINITY PREDICTED BY RF-SCORE:    0.00 PKD
ROOT
HETATM    1  N1  T8M A 405       8.751  -2.320  22.941  1.00  0.00    -0.245 NA 
HETATM    2  C10 T8M A 405       6.646  -3.236  22.059  1.00  0.00    -0.290 C  
HETATM    3  C3  T8M A 405       8.946  -1.634  21.660  1.00  0.00    -0.379 C  
HETATM    4  C2  T8M A 405       7.629  -1.329  20.990  1.00  0.00    -0.305 C  
HETATM    5  C   T8M A 405       7.173  -2.546  18.336  1.00  0.00     4.505 C  
HETATM    6  O   T8M A 405       5.882  -4.146  19.549  1.00  0.00    -0.835 OA 
HETATM    7  N   T8M A 405       6.909  -2.582  20.785  1.00  0.00    -0.196 N  
HETATM    8  C9  T8M A 405       7.962  -3.539  22.734  1.00  0.00    -0.333 C  
HETATM    9  C1  T8M A 405       6.583  -3.138  19.602  1.00  0.00     1.063 C  
ENDROOT
BRANCH   1  10
HETATM   10  C4  T8M A 405      10.055  -2.680  23.520  1.00  0.00    -0.501 C  
BRANCH  10  11
HETATM   11  C5  T8M A 405      11.025  -1.546  23.560  1.00  0.00    -0.357 A  
HETATM   12  C6  T8M A 405      12.116  -1.303  22.717  1.00  0.00    -0.377 A  
HETATM   13  C7  T8M A 405      12.806  -0.125  23.098  1.00  0.00    -0.385 A  
HETATM   14  C8  T8M A 405      12.131   0.595  24.020  1.00  0.00    -0.445 A  
HETATM   15  S   T8M A 405      10.898  -0.317  24.752  1.00  0.00    -0.379 SA 
ENDBRANCH  10  11
ENDBRANCH   1  10
TORSDOF 2
ENDMDL
