MODEL        1
REMARK THIS MODEL IS IDENTICAL TO THE INPUT LIGAND AND NOT FROM DOCKING
REMARK 921   NORMALIZED FREE ENERGY PREDICTED BY IDOCK:   -4.98 KCAL/MOL
REMARK 922        TOTAL FREE ENERGY PREDICTED BY IDOCK:   -7.52 KCAL/MOL
REMARK 923 INTER-LIGAND FREE ENERGY PREDICTED BY IDOCK:   -6.43 KCAL/MOL
REMARK 924 INTRA-LIGAND FREE ENERGY PREDICTED BY IDOCK:   -1.09 KCAL/MOL
REMARK 927      BINDING AFFINITY PREDICTED BY RF-SCORE:    0.00 PKD
ROOT
HETATM    1  C1  FUA A 401       9.431   1.328  29.412  1.00  0.00    -0.275 C  
HETATM    2  C10 FUA A 401       8.066   0.633  29.289  1.00  0.00    -0.140 C  
HETATM    3  C19 FUA A 401       7.959  -0.412  30.427  1.00  0.00    -0.193 C  
HETATM    4  C9  FUA A 401       7.928  -0.177  27.959  1.00  0.00    -0.144 C  
HETATM    5  C8  FUA A 401       6.489  -0.132  27.280  1.00  0.00    -0.103 C  
HETATM    6  C7  FUA A 401       5.476  -0.218  28.426  1.00  0.00    -0.081 C  
HETATM    7  C14 FUA A 401       6.414  -1.359  26.323  1.00  0.00    -0.102 C  
HETATM    8  C20 FUA A 401       6.137   1.162  26.456  1.00  0.00    -0.063 C  
HETATM    9  C6  FUA A 401       5.562   1.002  29.346  1.00  0.00    -0.069 C  
HETATM   10  C21 FUA A 401       6.517  -2.707  27.074  1.00  0.00    -0.131 C  
HETATM   11  C13 FUA A 401       7.550  -1.231  25.244  1.00  0.00    -0.150 C  
HETATM   12  C12 FUA A 401       8.912  -1.267  25.943  1.00  0.00    -0.253 C  
HETATM   13  C17 FUA A 401       7.152  -2.275  24.233  1.00  0.00    -0.185 C  
HETATM   14  C5  FUA A 401       6.954   1.673  29.447  1.00  0.00    -0.084 C  
HETATM   15  C16 FUA A 401       5.630  -2.367  24.276  1.00  0.00    -0.183 C  
HETATM   16  C4  FUA A 401       7.081   2.498  30.739  1.00  0.00    -0.076 C  
HETATM   17  C22 FUA A 401       7.851  -2.718  23.197  1.00  0.00    -0.228 C  
HETATM   18  C11 FUA A 401       9.074  -0.088  26.924  1.00  0.00    -0.232 C  
HETATM   19  C3  FUA A 401       8.477   3.135  30.855  1.00  0.00    -0.117 C  
HETATM   20  C18 FUA A 401       6.032   3.604  30.738  1.00  0.00    -0.027 C  
HETATM   21  C29 FUA A 401       7.178  -3.681  22.256  1.00  0.00    -0.264 C  
HETATM   22  C15 FUA A 401       5.183  -1.469  25.445  1.00  0.00    -0.177 C  
HETATM   23  H6  FUA A 401       7.955   4.723  29.897  1.00  0.00     0.000 HD 
HETATM   24  C2  FUA A 401       9.565   2.075  30.739  1.00  0.00    -0.231 C  
HETATM   25  O1  FUA A 401       9.085   1.112  26.222  1.00  0.00     0.007 OA 
HETATM   26  H1  FUA A 401       9.789   1.167  25.586  1.00  0.00     0.000 HD 
HETATM   27  O4  FUA A 401       6.487  -3.143  21.335  1.00  0.00    -0.123 OA 
HETATM   28  O5  FUA A 401       7.308  -4.895  22.429  1.00  0.00    -0.345 OA 
HETATM   29  O6  FUA A 401       8.633   4.062  29.825  1.00  0.00    -0.080 OA 
ENDROOT
BRANCH  17  30
HETATM   30  C23 FUA A 401       9.334  -2.763  23.150  1.00  0.00    -0.310 C  
BRANCH  30  31
HETATM   31  C24 FUA A 401       9.891  -1.628  22.332  1.00  0.00    -0.367 C  
BRANCH  31  32
HETATM   32  C25 FUA A 401      11.382  -1.773  22.336  1.00  0.00    -0.401 C  
HETATM   33  C26 FUA A 401      12.188  -0.986  23.055  1.00  0.00    -0.371 C  
HETATM   34  C28 FUA A 401      11.682   0.145  23.900  1.00  0.00    -0.056 C  
HETATM   35  C27 FUA A 401      13.651  -1.249  22.997  1.00  0.00    -0.339 C  
ENDBRANCH  31  32
ENDBRANCH  30  31
ENDBRANCH  17  30
BRANCH  15  36
HETATM   36  O2  FUA A 401       5.260  -3.730  24.511  1.00  0.00    -0.156 OA 
BRANCH  36  37
HETATM   37  C31 FUA A 401       3.982  -4.094  24.305  1.00  0.00    -0.176 C  
HETATM   38  C32 FUA A 401       3.766  -5.490  23.878  1.00  0.00    -0.217 C  
HETATM   39  O3  FUA A 401       3.051  -3.313  24.468  1.00  0.00     0.010 OA 
ENDBRANCH  36  37
ENDBRANCH  15  36
TORSDOF 5
ENDMDL
