MODEL        1
REMARK THIS MODEL IS IDENTICAL TO THE INPUT LIGAND AND NOT FROM DOCKING
REMARK 921   NORMALIZED FREE ENERGY PREDICTED BY IDOCK:    0.54 KCAL/MOL
REMARK 922        TOTAL FREE ENERGY PREDICTED BY IDOCK:    0.58 KCAL/MOL
REMARK 923 INTER-LIGAND FREE ENERGY PREDICTED BY IDOCK:    0.60 KCAL/MOL
REMARK 924 INTRA-LIGAND FREE ENERGY PREDICTED BY IDOCK:   -0.02 KCAL/MOL
REMARK 927      BINDING AFFINITY PREDICTED BY RF-SCORE:    0.00 PKD
ROOT
HETATM    1  N1  T6Y A 404       8.426  -2.618  23.287  1.00  0.00    -0.214 NA 
HETATM    2  C2  T6Y A 404       6.390  -3.362  22.143  1.00  0.00    -0.298 C  
HETATM    3  C9  T6Y A 404       8.852  -1.952  22.051  1.00  0.00    -0.374 C  
HETATM    4  C   T6Y A 404       7.100  -2.528  18.461  1.00  0.00     4.278 C  
HETATM    5  C10 T6Y A 404       7.670  -1.552  21.194  1.00  0.00    -0.263 C  
HETATM    6  N   T6Y A 404       6.828  -2.717  20.909  1.00  0.00    -0.183 N  
HETATM    7  O   T6Y A 404       5.755  -4.158  19.552  1.00  0.00    -0.839 OA 
HETATM    8  C1  T6Y A 404       6.496  -3.187  19.687  1.00  0.00     1.019 C  
HETATM    9  C3  T6Y A 404       7.599  -3.779  22.945  1.00  0.00    -0.283 C  
ENDROOT
BRANCH   1  10
HETATM   10  C4  T6Y A 404       9.590  -3.023  24.096  1.00  0.00    -0.413 C  
BRANCH  10  11
HETATM   11  C5  T6Y A 404       9.291  -4.111  25.082  1.00  0.00    -0.308 A  
HETATM   12  C6  T6Y A 404       9.747  -5.424  25.050  1.00  0.00    -0.183 A  
HETATM   13  C8  T6Y A 404       8.533  -5.450  27.016  1.00  0.00    -0.353 A  
HETATM   14  C7  T6Y A 404       9.430  -6.151  26.221  1.00  0.00    -0.244 A  
HETATM   15  S   T6Y A 404       8.271  -3.850  26.453  1.00  0.00    -0.272 SA 
HETATM   16 CL   T6Y A 404       7.710  -6.026  28.408  1.00  0.00    -0.469 Cl 
ENDBRANCH  10  11
ENDBRANCH   1  10
TORSDOF 2
ENDMDL
