MODEL        1
REMARK THIS MODEL IS IDENTICAL TO THE INPUT LIGAND AND NOT FROM DOCKING
REMARK 921   NORMALIZED FREE ENERGY PREDICTED BY IDOCK:   -0.04 KCAL/MOL
REMARK 922        TOTAL FREE ENERGY PREDICTED BY IDOCK:   -0.44 KCAL/MOL
REMARK 923 INTER-LIGAND FREE ENERGY PREDICTED BY IDOCK:   -0.04 KCAL/MOL
REMARK 924 INTRA-LIGAND FREE ENERGY PREDICTED BY IDOCK:   -0.40 KCAL/MOL
REMARK 927      BINDING AFFINITY PREDICTED BY RF-SCORE:    0.00 PKD
ROOT
HETATM    1  N1  T4Y A 404       6.707  -2.888  21.010  1.00  0.00    -0.254 N  
HETATM    2  C10 T4Y A 404       6.465  -1.466  21.285  1.00  0.00    -0.354 C  
HETATM    3  C13 T4Y A 404       6.566  -3.381  19.767  1.00  0.00     1.002 C  
HETATM    4  O   T4Y A 404       5.940  -4.416  19.555  1.00  0.00    -0.601 OA 
HETATM    5  C14 T4Y A 404       7.256  -2.704  18.592  1.00  0.00     4.552 C  
HETATM    6  C9  T4Y A 404       7.737  -0.660  21.242  1.00  0.00    -0.307 C  
HETATM    7  C8  T4Y A 404       8.910  -1.501  21.664  1.00  0.00    -0.339 C  
HETATM    8  N   T4Y A 404       8.798  -1.984  23.049  1.00  0.00    -0.219 NA 
HETATM    9  C12 T4Y A 404       7.765  -3.004  23.313  1.00  0.00    -0.241 C  
HETATM   10  C11 T4Y A 404       7.187  -3.740  22.106  1.00  0.00    -0.334 C  
ENDROOT
BRANCH   8  11
HETATM   11  C7  T4Y A 404      10.108  -2.327  23.615  1.00  0.00    -0.405 C  
BRANCH  11  12
HETATM   12  C6  T4Y A 404      10.976  -1.097  23.734  1.00  0.00    -0.391 A  
HETATM   13  C1  T4Y A 404      12.179  -0.958  23.020  1.00  0.00    -0.196 A  
HETATM   14  C   T4Y A 404      12.723  -2.048  22.132  1.00  0.00    -0.078 C  
HETATM   15  C2  T4Y A 404      12.910   0.211  23.159  1.00  0.00    -0.454 A  
HETATM   16  C3  T4Y A 404      12.470   1.244  23.962  1.00  0.00    -0.558 A  
HETATM   17  C4  T4Y A 404      11.282   1.123  24.643  1.00  0.00    -0.482 A  
HETATM   18  C5  T4Y A 404      10.540  -0.035  24.524  1.00  0.00    -0.380 A  
ENDBRANCH  11  12
ENDBRANCH   8  11
TORSDOF 2
ENDMDL
