MODEL        1
REMARK THIS MODEL IS IDENTICAL TO THE INPUT LIGAND AND NOT FROM DOCKING
REMARK 921   NORMALIZED FREE ENERGY PREDICTED BY IDOCK:   -3.44 KCAL/MOL
REMARK 922        TOTAL FREE ENERGY PREDICTED BY IDOCK:   -8.65 KCAL/MOL
REMARK 923 INTER-LIGAND FREE ENERGY PREDICTED BY IDOCK:   -6.45 KCAL/MOL
REMARK 924 INTRA-LIGAND FREE ENERGY PREDICTED BY IDOCK:   -2.20 KCAL/MOL
REMARK 927      BINDING AFFINITY PREDICTED BY RF-SCORE:    0.00 PKD
ROOT
HETATM    1  C1  NOL A 401      19.879  41.195 -12.321  1.00  0.00    -0.381 A  
HETATM    2  C2  NOL A 401      19.227  40.136 -12.948  1.00  0.00    -0.355 A  
HETATM    3  C5  NOL A 401      21.535  41.272 -14.094  1.00  0.00    -0.255 A  
HETATM    4  C3  NOL A 401      19.726  39.652 -14.168  1.00  0.00    -0.351 A  
HETATM    5  C4  NOL A 401      20.873  40.217 -14.735  1.00  0.00    -0.287 A  
HETATM    6  C6  NOL A 401      21.031  41.766 -12.889  1.00  0.00    -0.380 A  
ENDROOT
BRANCH   2   7
HETATM    7  C13 NOL A 401      17.954  39.518 -12.315  1.00  0.00    -0.184 C  
BRANCH   7   8
HETATM    8  O15 NOL A 401      18.237  38.774 -11.139  1.00  0.00    -0.304 OA 
BRANCH   8   9
HETATM    9  C17 NOL A 401      18.740  37.458 -11.251  1.00  0.00    -0.290 C  
HETATM   10  N19 NOL A 401      19.250  36.803 -10.073  1.00  0.00    -0.311 N  
HETATM   11  O89 NOL A 401      18.775  36.842 -12.276  1.00  0.00    -0.327 OA 
HETATM   12  H19 NOL A 401      19.151  37.233  -9.153  1.00  0.00     0.000 HD 
BRANCH  10  13
HETATM   13  C21 NOL A 401      19.900  35.531 -10.222  1.00  0.00    -0.244 C  
BRANCH  13  14
HETATM   14  C23 NOL A 401      18.985  34.532  -9.547  1.00  0.00    -0.275 C  
HETATM   15  O73 NOL A 401      18.712  34.700  -8.419  1.00  0.00    -0.490 OA 
HETATM   16  H25 NOL A 401      18.680  33.311 -11.265  1.00  0.00     0.000 HD 
HETATM   17  N25 NOL A 401      18.449  33.405 -10.276  1.00  0.00    -0.205 N  
BRANCH  17  18
HETATM   18  C27 NOL A 401      17.613  32.420  -9.676  1.00  0.00    -0.237 C  
BRANCH  18  19
HETATM   19  C29 NOL A 401      18.368  31.562  -8.655  1.00  0.00    -0.271 C  
HETATM   20  N31 NOL A 401      17.729  31.227  -7.413  1.00  0.00     0.109 N  
HETATM   21  H31 NOL A 401      16.795  31.600  -7.242  1.00  0.00     0.000 HD 
HETATM   22  O56 NOL A 401      19.440  31.142  -8.918  1.00  0.00    -0.218 OA 
BRANCH  20  23
HETATM   23  C33 NOL A 401      18.316  30.404  -6.400  1.00  0.00     0.824 C  
BRANCH  23  24
HETATM   24  C41 NOL A 401      18.732  31.234  -5.179  1.00  0.00    -0.063 C  
BRANCH  24  25
HETATM   25  C43 NOL A 401      19.802  32.235  -5.512  1.00  0.00    -0.384 C  
HETATM   26  C45 NOL A 401      21.095  31.499  -5.897  1.00  0.00    -0.368 C  
HETATM   27  C47 NOL A 401      22.186  32.547  -5.562  1.00  0.00    -0.353 C  
HETATM   28  N49 NOL A 401      21.651  33.266  -4.437  1.00  0.00    -0.258 NA 
HETATM   29  C51 NOL A 401      20.156  33.087  -4.346  1.00  0.00    -0.430 C  
HETATM   30  O54 NOL A 401      19.442  33.587  -3.503  1.00  0.00    -0.631 OA 
ENDBRANCH  24  25
ENDBRANCH  23  24
BRANCH  23  31
HETATM   31  C35 NOL A 401      17.263  29.440  -5.996  1.00  0.00     4.853 C  
HETATM   32  O39 NOL A 401      17.958  28.269  -5.608  1.00  0.00    -0.294 OA 
HETATM   33  H39 NOL A 401      17.284  27.652  -5.349  1.00  0.00     0.000 HD 
ENDBRANCH  23  31
ENDBRANCH  20  23
ENDBRANCH  18  19
BRANCH  18  34
HETATM   34  C58 NOL A 401      16.895  31.504 -10.674  1.00  0.00    -0.315 C  
BRANCH  34  35
HETATM   35  C60 NOL A 401      16.328  32.268 -11.900  1.00  0.00    -0.289 C  
HETATM   36  C64 NOL A 401      14.066  32.768 -13.696  1.00  0.00    -0.588 C  
HETATM   37  C66 NOL A 401      15.955  31.250 -12.997  1.00  0.00    -0.334 C  
HETATM   38  C65 NOL A 401      14.523  31.330 -13.497  1.00  0.00    -0.420 C  
HETATM   39  C62 NOL A 401      15.198  33.175 -11.390  1.00  0.00    -0.362 C  
HETATM   40  C63 NOL A 401      14.167  33.628 -12.434  1.00  0.00    -0.507 C  
ENDBRANCH  34  35
ENDBRANCH  18  34
ENDBRANCH  17  18
ENDBRANCH  13  14
BRANCH  13  41
HETATM   41  C75 NOL A 401      21.273  35.621  -9.543  1.00  0.00    -0.199 C  
HETATM   42  C77 NOL A 401      21.884  34.223  -9.453  1.00  0.00    -0.141 C  
BRANCH  41  43
HETATM   43  O79 NOL A 401      22.077  36.550 -10.296  1.00  0.00    -0.146 OA 
HETATM   44  C81 NOL A 401      22.921  37.506  -9.704  1.00  0.00    -0.134 C  
HETATM   45  C83 NOL A 401      23.794  38.092 -10.810  1.00  0.00    -0.109 C  
HETATM   46  C87 NOL A 401      23.815  36.894  -8.620  1.00  0.00    -0.159 C  
HETATM   47  C85 NOL A 401      22.120  38.648  -9.098  1.00  0.00    -0.384 C  
ENDBRANCH  41  43
ENDBRANCH  13  41
ENDBRANCH  10  13
ENDBRANCH   8   9
ENDBRANCH   7   8
ENDBRANCH   2   7
TORSDOF 15
ENDMDL
