REMARK  3 active torsions:
REMARK  status: ('A' for Active; 'I' for Inactive)
REMARK    1  A    between atoms: N1_1  and  C5_5
REMARK    2  A    between atoms: C6_3  and  C7_12
REMARK    3  A    between atoms: C7_12  and  C8_13
ROOT
HETATM    1  N1  UGP A1001       7.395  -0.438  21.107  1.00  0.00    -0.227 N
HETATM    2  O   UGP A1001       9.192   0.945  21.134  1.00  0.00    -0.279 OA
HETATM    3  C6  UGP A1001       8.559   0.008  21.611  1.00  0.00     0.209 C
HETATM    4  H1  UGP A1001       6.958  -1.237  21.567  1.00  0.00     0.136 HD
ENDROOT
BRANCH   1   5
HETATM    5  C5  UGP A1001       6.734   0.114  19.993  1.00  0.00     0.043 A
HETATM    6  C2  UGP A1001       4.909   1.330  19.050  1.00  0.00     0.024 A
HETATM    7  C4  UGP A1001       7.252   0.001  18.701  1.00  0.00     0.131 A
HETATM    8  N   UGP A1001       6.653   0.519  17.622  1.00  0.00    -0.262 NA
HETATM    9  C   UGP A1001       4.928   1.004  21.550  1.00  0.00     0.045 C
HETATM   10  C3  UGP A1001       5.496   1.163  17.811  1.00  0.00     0.111 A
HETATM   11  C1  UGP A1001       5.525   0.801  20.180  1.00  0.00    -0.029 A
ENDBRANCH   1   5
BRANCH   3  12
HETATM   12  C7  UGP A1001       9.069  -0.775  22.804  1.00  0.00     0.127 C
BRANCH  12  13
HETATM   13  C8  UGP A1001      10.555  -0.547  22.952  1.00  0.00    -0.038 A
HETATM   14  C9  UGP A1001      11.052   0.270  23.961  1.00  0.00     0.004 A
HETATM   15  C11 UGP A1001      13.291  -0.025  23.149  1.00  0.00     0.019 A
HETATM   16  C12 UGP A1001      12.810  -0.861  22.144  1.00  0.00     0.052 A
HETATM   17  C10 UGP A1001      12.409   0.531  24.060  1.00  0.00     0.002 A
HETATM   18  C13 UGP A1001      13.724  -1.489  21.225  1.00  0.00     0.099 C
HETATM   19  C14 UGP A1001      11.444  -1.119  22.045  1.00  0.00     0.023 A
HETATM   20  N2  UGP A1001      14.439  -2.014  20.505  1.00  0.00    -0.191 NA
ENDBRANCH  12  13
ENDBRANCH   3  12
TORSDOF 3
