REMARK  7 active torsions:
REMARK  status: ('A' for Active; 'I' for Inactive)
REMARK    1  A    between atoms: NBD_2  and  CBC_8
REMARK    2  A    between atoms: CBC_8  and  CAZ_9
REMARK    3  A    between atoms: CAV_12  and  CAU_15
REMARK    4  A    between atoms: NAT_17  and  CAO_19
REMARK    5  A    between atoms: CAM_21  and  NAL_26
REMARK    6  A    between atoms: NAL_26  and  CAJ_28
REMARK    7  A    between atoms: CAG_30  and  CAF_33
ROOT
HETATM    1  CBE G65 A 401      19.094   8.365  27.847  1.00  0.00     0.100 C
HETATM    2  NBD G65 A 401      17.737   8.014  27.418  1.00  0.00    -0.296 NA
HETATM    3  CBI G65 A 401      16.895   9.217  27.375  1.00  0.00     0.100 C
HETATM    4  NBG G65 A 401      18.824  10.660  27.002  1.00  0.00    -0.303 NA
HETATM    5  CBH G65 A 401      17.495  10.306  26.517  1.00  0.00     0.099 C
HETATM    6  CBF G65 A 401      19.674   9.471  26.997  1.00  0.00     0.099 C
HETATM    7  CBJ G65 A 401      18.751  11.245  28.342  1.00  0.00     0.105 C
ENDROOT
BRANCH   2   8
HETATM    8  CBC G65 A 401      17.716   7.261  26.154  1.00  0.00     0.119 C
BRANCH   8   9
HETATM    9  CAZ G65 A 401      16.563   6.281  26.051  1.00  0.00    -0.033 A
HETATM   10  CAX G65 A 401      15.663   4.052  26.303  1.00  0.00     0.013 A
HETATM   11  CAY G65 A 401      16.724   4.941  26.392  1.00  0.00     0.005 A
HETATM   12  CAV G65 A 401      14.411   4.481  25.883  1.00  0.00     0.034 A
HETATM   13  CBA G65 A 401      15.307   6.699  25.625  1.00  0.00     0.005 A
HETATM   14  CBB G65 A 401      14.247   5.813  25.539  1.00  0.00     0.013 A
BRANCH  12  15
HETATM   15  CAU G65 A 401      13.255   3.534  25.777  1.00  0.00     0.236 C
HETATM   16  OAW G65 A 401      13.404   2.331  25.974  1.00  0.00    -0.274 OA
HETATM   17  NAT G65 A 401      12.057   4.078  25.455  1.00  0.00    -0.224 N
HETATM   18  HAT G65 A 401      12.021   5.090  25.336  1.00  0.00     0.137 HD
BRANCH  17  19
HETATM   19  CAO G65 A 401      10.854   3.364  25.270  1.00  0.00     0.024 A
HETATM   20  CAN G65 A 401      10.549   2.837  24.018  1.00  0.00     0.040 A
HETATM   21  CAM G65 A 401       9.370   2.115  23.831  1.00  0.00     0.026 A
HETATM   22  CAQ G65 A 401       8.829   2.422  26.155  1.00  0.00     0.006 A
HETATM   23  CAR G65 A 401       8.500   1.890  24.902  1.00  0.00    -0.032 A
HETATM   24  CAP G65 A 401       9.995   3.145  26.342  1.00  0.00     0.020 A
HETATM   25  CAS G65 A 401       7.223   1.120  24.722  1.00  0.00     0.045 C
BRANCH  21  26
HETATM   26  NAL G65 A 401       9.036   1.580  22.565  1.00  0.00    -0.237 NA
HETATM   27  HAL G65 A 401       8.040   1.537  22.351  1.00  0.00     0.136 HD
BRANCH  26  28
HETATM   28  CAJ G65 A 401       9.869   1.115  21.596  1.00  0.00     0.150 A
HETATM   29  NAK G65 A 401       9.456   0.846  20.388  1.00  0.00    -0.228 NA
HETATM   30  CAG G65 A 401      10.462   0.215  19.650  1.00  0.00     0.081 A
HETATM   31  SAI G65 A 401      11.552   0.787  21.875  1.00  0.00    -0.063 SA
HETATM   32  CAH G65 A 401      11.659   0.124  20.287  1.00  0.00     0.076 A
BRANCH  30  33
HETATM   33  CAF G65 A 401      10.123  -0.304  18.311  1.00  0.00     0.019 A
HETATM   34  CAA G65 A 401      11.041  -0.985  17.514  1.00  0.00     0.013 A
HETATM   35  CAB G65 A 401      10.657  -1.479  16.279  1.00  0.00     0.020 A
HETATM   36  CAC G65 A 401       9.352  -1.273  15.869  1.00  0.00     0.111 A
HETATM   37  NAD G65 A 401       8.449  -0.625  16.612  1.00  0.00    -0.263 NA
HETATM   38  CAE G65 A 401       8.837  -0.160  17.812  1.00  0.00     0.120 A
ENDBRANCH  30  33
ENDBRANCH  26  28
ENDBRANCH  21  26
ENDBRANCH  17  19
ENDBRANCH  12  15
ENDBRANCH   8   9
ENDBRANCH   2   8
TORSDOF 7
