REMARK 11 active torsions:
REMARK  status: ('A' for Active; 'I' for Inactive)
REMARK    1  A    between atoms: C28_1  and  N29_3
REMARK    2  A    between atoms: C28_1  and  N27_9
REMARK    3  A    between atoms: N27_9  and  C22_11
REMARK    4  A    between atoms: C22_11  and  C23_12
REMARK    5  A    between atoms: C22_11  and  C21_16
REMARK    6  A    between atoms: C13_22  and  C12_26
REMARK    7  A    between atoms: N11_28  and  C05_30
REMARK    8  A    between atoms: C05_30  and  C03_31
REMARK    9  A    between atoms: C05_30  and  C06_39
REMARK   10  A    between atoms: C06_39  and  C07_40
REMARK   11  A    between atoms: C03_31  and  C02_34
ROOT
HETATM    1  C28 U5G A 503     -20.171 -19.491  16.257  1.00  0.00     0.274 C
HETATM    2  O34 U5G A 503     -20.886 -19.361  17.260  1.00  0.00    -0.261 OA
ENDROOT
BRANCH   1   3
HETATM    3  N29 U5G A 503     -20.438 -20.350  15.254  1.00  0.00    -0.240 N
HETATM    4  C33 U5G A 503     -22.775 -20.103  14.689  1.00  0.00     0.027 C
HETATM    5  C32 U5G A 503     -21.451 -22.114  13.920  1.00  0.00     0.027 C
HETATM    6  C30 U5G A 503     -21.689 -21.115  15.055  1.00  0.00     0.019 C
HETATM    7  C31 U5G A 503     -22.047 -21.865  16.335  1.00  0.00     0.027 C
HETATM    8  H29 U5G A 503     -19.703 -20.487  14.561  1.00  0.00     0.132 HD
ENDBRANCH   1   3
BRANCH   1   9
HETATM    9  N27 U5G A 503     -19.032 -18.779  16.095  1.00  0.00    -0.233 N
HETATM   10  H27 U5G A 503     -18.439 -18.974  15.288  1.00  0.00     0.132 HD
BRANCH   9  11
HETATM   11  C22 U5G A 503     -18.626 -17.750  17.027  1.00  0.00     0.151 C
BRANCH  11  12
HETATM   12  C23 U5G A 503     -17.447 -18.189  17.905  1.00  0.00    -0.014 C
HETATM   13  C24 U5G A 503     -16.195 -18.555  17.109  1.00  0.00     0.012 C
HETATM   14  C25 U5G A 503     -17.833 -19.426  18.723  1.00  0.00     0.012 C
HETATM   15  C26 U5G A 503     -17.111 -17.035  18.846  1.00  0.00     0.012 C
ENDBRANCH  11  12
BRANCH  11  16
HETATM   16  C21 U5G A 503     -18.401 -16.453  16.252  1.00  0.00     0.226 C
HETATM   17  O35 U5G A 503     -17.589 -16.361  15.335  1.00  0.00    -0.277 OA
HETATM   18  N20 U5G A 503     -19.103 -15.385  16.652  1.00  0.00    -0.204 N
HETATM   19  C19 U5G A 503     -20.092 -15.292  17.737  1.00  0.00     0.069 C
HETATM   20  C15 U5G A 503     -20.732 -13.950  17.501  1.00  0.00    -0.025 C
HETATM   21  C14 U5G A 503     -20.002 -13.244  16.372  1.00  0.00    -0.028 C
HETATM   22  C13 U5G A 503     -18.856 -14.128  15.959  1.00  0.00     0.178 C
HETATM   23  C16 U5G A 503     -21.423 -13.706  16.167  1.00  0.00     0.015 C
HETATM   24  C17 U5G A 503     -22.531 -12.667  16.194  1.00  0.00     0.020 C
HETATM   25  C18 U5G A 503     -21.684 -14.860  15.210  1.00  0.00     0.020 C
BRANCH  22  26
HETATM   26  C12 U5G A 503     -17.556 -13.541  16.465  1.00  0.00     0.223 C
HETATM   27  O36 U5G A 503     -17.439 -13.293  17.664  1.00  0.00    -0.277 OA
HETATM   28  N11 U5G A 503     -16.617 -13.302  15.541  1.00  0.00    -0.251 N
HETATM   29  H11 U5G A 503     -16.818 -13.534  14.568  1.00  0.00     0.131 HD
BRANCH  28  30
HETATM   30  C05 U5G A 503     -15.303 -12.716  15.872  1.00  0.00     0.099 C
BRANCH  30  31
HETATM   31  C03 U5G A 503     -15.249 -11.242  15.410  1.00  0.00     0.213 C
HETATM   32  H04 U5G A 503     -16.370  -9.703  15.594  1.00  0.00     0.210 HD
HETATM   33  O04 U5G A 503     -16.403 -10.609  15.878  1.00  0.00    -0.381 OA
BRANCH  31  34
HETATM   34  C02 U5G A 503     -14.154 -10.452  16.009  1.00  0.00     0.228 C
HETATM   35  N37 U5G A 503     -14.475  -9.685  17.205  1.00  0.00    -0.270 N
HETATM   36 2H37 U5G A 503     -14.875 -10.304  17.910  1.00  0.00     0.127 HD
HETATM   37 1H37 U5G A 503     -13.719  -9.140  17.619  1.00  0.00     0.127 HD
HETATM   38  O01 U5G A 503     -13.056 -10.413  15.519  1.00  0.00    -0.277 OA
ENDBRANCH  31  34
ENDBRANCH  30  31
BRANCH  30  39
HETATM   39  C06 U5G A 503     -14.191 -13.652  15.385  1.00  0.00     0.025 C
BRANCH  39  40
HETATM   40  C07 U5G A 503     -14.125 -14.923  16.234  1.00  0.00    -0.009 C
HETATM   41  C09 U5G A 503     -13.120 -15.950  17.824  1.00  0.00     0.001 C
HETATM   42  C08 U5G A 503     -14.095 -14.771  17.768  1.00  0.00     0.003 C
HETATM   43  C10 U5G A 503     -12.800 -15.703  16.336  1.00  0.00     0.003 C
ENDBRANCH  39  40
ENDBRANCH  30  39
ENDBRANCH  28  30
ENDBRANCH  22  26
ENDBRANCH  11  16
ENDBRANCH   9  11
ENDBRANCH   1   9
TORSDOF 11
