MODEL        1
REMARK THIS MODEL IS IDENTICAL TO THE INPUT LIGAND AND NOT FROM DOCKING
REMARK 921   NORMALIZED FREE ENERGY PREDICTED BY IDOCK:   -3.43 KCAL/MOL
REMARK 922        TOTAL FREE ENERGY PREDICTED BY IDOCK:   -4.76 KCAL/MOL
REMARK 923 INTER-LIGAND FREE ENERGY PREDICTED BY IDOCK:   -4.63 KCAL/MOL
REMARK 924 INTRA-LIGAND FREE ENERGY PREDICTED BY IDOCK:   -0.12 KCAL/MOL
REMARK 927      BINDING AFFINITY PREDICTED BY RF-SCORE:    0.00 PKD
ROOT
HETATM    1  N1  VEV A 405       7.809   1.669  22.958  1.00  0.00    -0.193 N  
HETATM    2  C4  VEV A 405       8.040   1.020  21.824  1.00  0.00    -0.263 C  
HETATM    3  C5  VEV A 405       8.743   2.645  23.488  1.00  0.00    -0.225 C  
HETATM    4  H1  VEV A 405       6.950   1.476  23.473  1.00  0.00     0.000 HD 
HETATM    5  O1  VEV A 405       8.996   1.249  21.086  1.00  0.00    -0.628 OA 
ENDROOT
BRANCH   2   6
HETATM    6  C3  VEV A 405       6.989  -0.046  21.472  1.00  0.00    -0.261 C  
BRANCH   6   7
HETATM    7  C6  VEV A 405       6.341   0.219  20.123  1.00  0.00    -0.361 A  
HETATM    8  N2  VEV A 405       6.568   0.291  17.724  1.00  0.00    -0.594 NA 
HETATM    9  C8  VEV A 405       5.492   1.082  17.675  1.00  0.00    -0.386 A  
HETATM   10  C10 VEV A 405       5.209   1.015  20.029  1.00  0.00    -0.402 A  
HETATM   11  C7  VEV A 405       6.958  -0.136  18.930  1.00  0.00    -0.510 A  
HETATM   12  C9  VEV A 405       4.773   1.458  18.796  1.00  0.00    -0.564 A  
ENDBRANCH   6   7
BRANCH   6  13
HETATM   13  N   VEV A 405       7.473  -1.416  21.784  1.00  0.00    -0.303 N  
HETATM   14  C2  VEV A 405       6.665  -2.475  21.480  1.00  0.00    -0.009 C  
HETATM   15  O   VEV A 405       5.498  -2.320  21.170  1.00  0.00    -0.642 OA 
BRANCH  13  16
HETATM   16  C11 VEV A 405       8.732  -1.594  22.445  1.00  0.00    -0.278 A  
HETATM   17  C15 VEV A 405      10.017  -1.775  24.473  1.00  0.00    -0.309 A  
HETATM   18  C13 VEV A 405      11.126  -1.809  22.356  1.00  0.00    -0.426 A  
HETATM   19  C14 VEV A 405      11.203  -1.848  23.747  1.00  0.00    -0.405 A  
HETATM   20  C16 VEV A 405       8.794  -1.647  23.836  1.00  0.00    -0.233 A  
HETATM   21  C12 VEV A 405       9.910  -1.685  21.709  1.00  0.00    -0.307 A  
BRANCH  19  22
HETATM   22  C17 VEV A 405      12.552  -1.908  24.477  1.00  0.00    -0.449 C  
HETATM   23  C20 VEV A 405      12.597  -3.085  25.470  1.00  0.00    -0.525 C  
HETATM   24  C18 VEV A 405      12.760  -0.603  25.241  1.00  0.00    -0.490 C  
HETATM   25  C19 VEV A 405      13.729  -2.066  23.512  1.00  0.00    -0.628 C  
ENDBRANCH  19  22
ENDBRANCH  13  16
BRANCH  14  26
HETATM   26  C1  VEV A 405       7.261  -3.856  21.493  1.00  0.00     0.718 C  
HETATM   27  C   VEV A 405       7.123  -4.513  20.141  1.00  0.00     4.039 C  
ENDBRANCH  14  26
ENDBRANCH   6  13
ENDBRANCH   2   6
TORSDOF 6
ENDMDL
