MODEL        1
REMARK THIS MODEL IS IDENTICAL TO THE INPUT LIGAND AND NOT FROM DOCKING
REMARK 921   NORMALIZED FREE ENERGY PREDICTED BY IDOCK:   -3.93 KCAL/MOL
REMARK 922        TOTAL FREE ENERGY PREDICTED BY IDOCK:   -4.18 KCAL/MOL
REMARK 923 INTER-LIGAND FREE ENERGY PREDICTED BY IDOCK:   -4.39 KCAL/MOL
REMARK 924 INTRA-LIGAND FREE ENERGY PREDICTED BY IDOCK:    0.21 KCAL/MOL
REMARK 927      BINDING AFFINITY PREDICTED BY RF-SCORE:    0.00 PKD
ROOT
HETATM    1  C10 U0M A 404      12.993   0.402  22.848  1.00  0.00    -0.368 C  
HETATM    2  C09 U0M A 404      11.972   1.157  23.326  1.00  0.00    -0.516 C  
HETATM    3  C08 U0M A 404      10.650   0.259  23.752  1.00  0.00    -0.307 C  
HETATM    4  N07 U0M A 404      10.300  -0.537  22.815  1.00  0.00    -0.260 NA 
HETATM    5  C13 U0M A 404      11.434  -1.516  22.358  1.00  0.00    -0.424 C  
HETATM    6  C11 U0M A 404      12.662  -0.864  22.063  1.00  0.00    -0.120 C  
HETATM    7  F12 U0M A 404      13.644  -1.587  21.505  1.00  0.00    -0.662 F  
ENDROOT
BRANCH   4   8
HETATM    8  C06 U0M A 404       9.176  -1.103  22.937  1.00  0.00    -0.239 C  
BRANCH   8   9
HETATM    9  C05 U0M A 404       9.110  -2.111  24.101  1.00  0.00    -0.280 C  
HETATM   10  N04 U0M A 404       8.598  -1.833  25.357  1.00  0.00    -0.251 NA 
HETATM   11  N03 U0M A 404       8.685  -3.014  26.244  1.00  0.00    -0.302 NA 
HETATM   12  H04 U0M A 404       7.645  -1.475  25.302  1.00  0.00     0.000 HD 
HETATM   13  C02 U0M A 404       9.245  -4.089  25.586  1.00  0.00    -0.203 C  
HETATM   14  S14 U0M A 404       9.626  -3.670  24.043  1.00  0.00    -0.111 SA 
HETATM   15  C01 U0M A 404       9.483  -5.470  26.214  1.00  0.00    -0.349 C  
ENDBRANCH   8   9
ENDBRANCH   4   8
TORSDOF 2
ENDMDL
