MODEL        1
REMARK THIS MODEL IS IDENTICAL TO THE INPUT LIGAND AND NOT FROM DOCKING
REMARK 921   NORMALIZED FREE ENERGY PREDICTED BY IDOCK:   -3.67 KCAL/MOL
REMARK 922        TOTAL FREE ENERGY PREDICTED BY IDOCK:   -4.63 KCAL/MOL
REMARK 923 INTER-LIGAND FREE ENERGY PREDICTED BY IDOCK:   -4.32 KCAL/MOL
REMARK 924 INTRA-LIGAND FREE ENERGY PREDICTED BY IDOCK:   -0.31 KCAL/MOL
REMARK 927      BINDING AFFINITY PREDICTED BY RF-SCORE:    0.00 PKD
ROOT
HETATM    1  C12 R6Q A 401       3.782   1.285 -22.753  1.00  0.00    -0.059 C  
HETATM    2  C11 R6Q A 401       2.460   1.572 -23.457  1.00  0.00    -0.022 C  
HETATM    3  C10 R6Q A 401       1.533   2.584 -22.788  1.00  0.00    -0.035 C  
HETATM    4  C15 R6Q A 401       2.192   3.536 -21.766  1.00  0.00    -0.077 C  
HETATM    5  C06 R6Q A 401       0.636   3.310 -23.783  1.00  0.00    -0.013 A  
HETATM    6  C01 R6Q A 401       1.026   4.439 -24.507  1.00  0.00    -0.003 A  
HETATM    7  C14 R6Q A 401       3.556   3.179 -21.226  1.00  0.00    -0.143 C  
HETATM    8  N13 R6Q A 401       4.425   2.526 -22.227  1.00  0.00    -0.076 NA 
HETATM    9  C02 R6Q A 401       0.161   5.063 -25.393  1.00  0.00     0.000 A  
HETATM   10  C03 R6Q A 401      -1.129   4.582 -25.592  1.00  0.00     0.000 A  
HETATM   11  H07 R6Q A 401      -1.918   1.180 -23.672  1.00  0.00     0.000 HD 
HETATM   12  C04 R6Q A 401      -1.558   3.466 -24.899  1.00  0.00    -0.004 A  
HETATM   13  C08 R6Q A 401      -0.508   1.348 -22.124  1.00  0.00    -0.026 C  
HETATM   14  C05 R6Q A 401      -0.673   2.846 -24.007  1.00  0.00    -0.009 A  
HETATM   15  O09 R6Q A 401       0.789   1.678 -21.936  1.00  0.00    -0.044 OA 
HETATM   16  O28 R6Q A 401      -1.060   0.743 -21.223  1.00  0.00    -0.026 OA 
HETATM   17  N07 R6Q A 401      -1.132   1.722 -23.312  1.00  0.00    -0.010 N  
ENDROOT
BRANCH   8  18
HETATM   18  C16 R6Q A 401       5.740   2.228 -21.620  1.00  0.00    -0.099 C  
BRANCH  18  19
HETATM   19  C17 R6Q A 401       6.699   3.265 -22.167  1.00  0.00    -0.155 C  
BRANCH  19  20
HETATM   20  C18 R6Q A 401       7.771   3.457 -21.170  1.00  0.00    -0.259 A  
HETATM   21  C21 R6Q A 401       9.803   3.788 -19.359  1.00  0.00    -0.353 A  
HETATM   22  C19 R6Q A 401       8.949   2.733 -21.311  1.00  0.00    -0.076 A  
HETATM   23  C20 R6Q A 401       9.974   2.895 -20.401  1.00  0.00    -0.334 A  
HETATM   24  C22 R6Q A 401       8.631   4.522 -19.201  1.00  0.00    -0.403 A  
HETATM   25  C24 R6Q A 401      10.891   3.981 -18.371  1.00  0.00    -0.305 C  
HETATM   26  F27 R6Q A 401      11.921   3.119 -18.530  1.00  0.00    -0.344 F  
HETATM   27  C23 R6Q A 401       7.607   4.356 -20.118  1.00  0.00    -0.331 A  
HETATM   28  F25 R6Q A 401      11.467   5.190 -18.444  1.00  0.00    -0.566 F  
HETATM   29  F26 R6Q A 401      10.478   3.836 -17.114  1.00  0.00    -0.544 F  
ENDBRANCH  19  20
ENDBRANCH  18  19
ENDBRANCH   8  18
TORSDOF 3
ENDMDL
