MODEL        1
REMARK THIS MODEL IS IDENTICAL TO THE INPUT LIGAND AND NOT FROM DOCKING
REMARK 921   NORMALIZED FREE ENERGY PREDICTED BY IDOCK:   -5.85 KCAL/MOL
REMARK 922        TOTAL FREE ENERGY PREDICTED BY IDOCK:   -6.73 KCAL/MOL
REMARK 923 INTER-LIGAND FREE ENERGY PREDICTED BY IDOCK:   -6.87 KCAL/MOL
REMARK 924 INTRA-LIGAND FREE ENERGY PREDICTED BY IDOCK:    0.14 KCAL/MOL
REMARK 927      BINDING AFFINITY PREDICTED BY RF-SCORE:    0.00 PKD
ROOT
HETATM    1  N1  UGM A1001      14.398  -1.975  20.469  1.00  0.00     0.279 NA 
HETATM    2  C6  UGM A1001      13.692  -1.496  21.227  1.00  0.00    -0.431 C  
HETATM    3  C5  UGM A1001      12.769  -0.901  22.160  1.00  0.00    -0.589 A  
HETATM    4  C7  UGM A1001      11.401  -1.109  22.020  1.00  0.00    -0.446 A  
HETATM    5  C2  UGM A1001      10.519  -0.517  22.918  1.00  0.00    -0.258 A  
HETATM    6  C4  UGM A1001      13.208  -0.102  23.217  1.00  0.00    -0.595 A  
HETATM    7  C3  UGM A1001      11.063   0.258  23.931  1.00  0.00    -0.306 A  
HETATM    8  N   UGM A1001      12.378   0.473  24.095  1.00  0.00    -0.335 NA 
ENDROOT
BRANCH   5   9
HETATM    9  C1  UGM A1001       9.025  -0.666  22.758  1.00  0.00    -0.230 C  
BRANCH   9  10
HETATM   10  C   UGM A1001       8.562   0.117  21.545  1.00  0.00    -0.292 C  
HETATM   11  N2  UGM A1001       7.255  -0.025  21.247  1.00  0.00    -0.296 N  
HETATM   12  O   UGM A1001       9.321   0.870  20.936  1.00  0.00    -0.597 OA 
HETATM   13  H2  UGM A1001       6.649  -0.322  22.012  1.00  0.00     0.000 HD 
BRANCH  11  14
HETATM   14  C8  UGM A1001       6.625   0.188  20.003  1.00  0.00    -0.336 A  
HETATM   15  C12 UGM A1001       7.289   0.134  18.776  1.00  0.00    -0.492 A  
HETATM   16  N3  UGM A1001       6.781   0.624  17.639  1.00  0.00    -0.507 NA 
HETATM   17  C11 UGM A1001       5.578   1.206  17.703  1.00  0.00    -0.478 A  
HETATM   18  C10 UGM A1001       4.840   1.307  18.869  1.00  0.00    -0.518 A  
HETATM   19  C9  UGM A1001       5.365   0.771  20.030  1.00  0.00    -0.443 A  
ENDBRANCH  11  14
ENDBRANCH   9  10
ENDBRANCH   5   9
TORSDOF 3
ENDMDL
