REMARK 14 active torsions:
REMARK  status: ('A' for Active; 'I' for Inactive)
REMARK    1  A    between atoms: C4_4  and  C7_7
REMARK    2  A    between atoms: C7_7  and  O8_8
REMARK    3  A    between atoms: O8_8  and  C9_9
REMARK    4  A    between atoms: N10_10  and  C11_13
REMARK    5  A    between atoms: C11_13  and  C30_14
REMARK    6  A    between atoms: C11_13  and  C12_21
REMARK    7  A    between atoms: C30_14  and  O32_16
REMARK    8  A    between atoms: N13_24  and  C14_25
REMARK    9  A    between atoms: C14_25  and  C34_26
REMARK   10  A    between atoms: C14_25  and  C15_30
REMARK   11  A    between atoms: N16_33  and  C17_34
REMARK   12  A    between atoms: C17_34  and  C19_35
REMARK   13  A    between atoms: C17_34  and  C27_43
REMARK   14  A    between atoms: C19_35  and  C20_36
ROOT
HETATM    1  C1  VHP A 401      44.507  10.094 -17.242  1.00  0.00     0.000 A
HETATM    2  C6  VHP A 401      44.997   9.129 -18.115  1.00  0.00     0.000 A
HETATM    3  C5  VHP A 401      44.112   8.182 -18.622  1.00  0.00     0.006 A
HETATM    4  C4  VHP A 401      42.759   8.203 -18.278  1.00  0.00    -0.021 A
HETATM    5  C2  VHP A 401      43.162  10.105 -16.883  1.00  0.00     0.000 A
HETATM    6  C3  VHP A 401      42.286   9.160 -17.396  1.00  0.00     0.006 A
ENDROOT
BRANCH   4   7
HETATM    7  C7  VHP A 401      41.796   7.169 -18.817  1.00  0.00     0.207 C
BRANCH   7   8
HETATM    8  O8  VHP A 401      41.303   6.426 -17.708  1.00  0.00    -0.298 OA
BRANCH   8   9
HETATM    9  C9  VHP A 401      42.212   5.596 -16.928  1.00  0.00     0.339 C
HETATM   10  N10 VHP A 401      41.755   4.997 -15.833  1.00  0.00    -0.220 N
HETATM   11  O29 VHP A 401      43.376   5.481 -17.287  1.00  0.00    -0.245 OA
HETATM   12  H10 VHP A 401      40.784   5.152 -15.561  1.00  0.00     0.134 HD
BRANCH  10  13
HETATM   13  C11 VHP A 401      42.581   4.129 -15.005  1.00  0.00     0.174 C
BRANCH  13  14
HETATM   14  C30 VHP A 401      42.968   4.695 -13.653  1.00  0.00     0.142 C
HETATM   15  C18 VHP A 401      43.923   3.715 -12.962  1.00  0.00     0.040 C
BRANCH  14  16
HETATM   16  O32 VHP A 401      43.620   5.924 -13.912  1.00  0.00    -0.369 OA
HETATM   17  C8  VHP A 401      43.535   6.985 -12.979  1.00  0.00     0.062 C
HETATM   18  C13 VHP A 401      42.502   6.642 -11.909  1.00  0.00     0.041 C
HETATM   19  C10 VHP A 401      44.930   7.137 -12.351  1.00  0.00     0.041 C
HETATM   20  C16 VHP A 401      43.119   8.218 -13.773  1.00  0.00     0.041 C
ENDBRANCH  14  16
ENDBRANCH  13  14
BRANCH  13  21
HETATM   21  C12 VHP A 401      41.821   2.893 -14.703  1.00  0.00     0.221 C
HETATM   22  O33 VHP A 401      40.922   2.897 -13.870  1.00  0.00    -0.278 OA
HETATM   23  H13 VHP A 401      42.974   1.903 -16.077  1.00  0.00     0.131 HD
HETATM   24  N13 VHP A 401      42.214   1.841 -15.399  1.00  0.00    -0.246 N
BRANCH  24  25
HETATM   25  C14 VHP A 401      41.521   0.604 -15.157  1.00  0.00     0.144 C
BRANCH  25  26
HETATM   26  C34 VHP A 401      41.891  -0.247 -16.363  1.00  0.00     0.031 C
HETATM   27  C37 VHP A 401      39.846   0.436 -17.682  1.00  0.00     0.007 C
HETATM   28  C36 VHP A 401      41.513  -0.797 -18.779  1.00  0.00     0.007 C
HETATM   29  C35 VHP A 401      41.334   0.251 -17.702  1.00  0.00    -0.015 C
ENDBRANCH  25  26
BRANCH  25  30
HETATM   30  C15 VHP A 401      41.958   0.068 -13.816  1.00  0.00     0.218 C
HETATM   31  O38 VHP A 401      43.145  -0.102 -13.542  1.00  0.00    -0.278 OA
HETATM   32  H16 VHP A 401      39.997   0.050 -13.336  1.00  0.00     0.131 HD
HETATM   33  N16 VHP A 401      40.932  -0.148 -12.981  1.00  0.00    -0.252 N
BRANCH  33  34
HETATM   34  C17 VHP A 401      41.029  -0.642 -11.605  1.00  0.00     0.087 C
BRANCH  34  35
HETATM   35  C19 VHP A 401      39.876   0.080 -10.895  1.00  0.00     0.033 C
BRANCH  35  36
HETATM   36  C20 VHP A 401      40.145   1.581 -10.892  1.00  0.00     0.074 C
HETATM   37  C21 VHP A 401      41.438   1.845 -10.123  1.00  0.00     0.028 C
HETATM   38  C22 VHP A 401      41.082   2.500  -8.784  1.00  0.00     0.090 C
HETATM   39  N23 VHP A 401      39.691   2.842  -9.026  1.00  0.00    -0.258 N
HETATM   40  H23 VHP A 401      39.168   3.429  -8.376  1.00  0.00     0.130 HD
HETATM   41  C24 VHP A 401      39.129   2.361 -10.126  1.00  0.00     0.204 C
HETATM   42  O26 VHP A 401      37.981   2.531 -10.494  1.00  0.00    -0.279 OA
ENDBRANCH  35  36
ENDBRANCH  34  35
BRANCH  34  43
HETATM   43  C27 VHP A 401      40.761  -2.145 -11.704  1.00  0.00     0.174 C
HETATM   44  H28 VHP A 401      40.388  -3.693 -10.487  1.00  0.00     0.209 HD
HETATM   45  O28 VHP A 401      40.554  -2.760 -10.426  1.00  0.00    -0.393 OA
ENDBRANCH  34  43
ENDBRANCH  33  34
ENDBRANCH  25  30
ENDBRANCH  24  25
ENDBRANCH  13  21
ENDBRANCH  10  13
ENDBRANCH   8   9
ENDBRANCH   7   8
ENDBRANCH   4   7
TORSDOF 14
